
*** ChampSim Multicore Out-of-Order Simulator ***

Warmup Instructions: 10000000
Simulation Instructions: 10000000
Number of CPUs: 1
LLC sets: 2048
LLC ways: 16
Off-chip DRAM Size: 4096 MB Channels: 1 Width: 64-bit Data Rate: 3200 MT/s

CPU 0 runs ../traces//607.cactuBSSN_s-2421B.champsimtrace.xz
CPU 0 Bimodal branch predictor
Initialize Hawkeye state
*************************************************1**************************
*************************************************1**************************
*************************************************1**************************
*************************************************1**************************
*************************************************1**************************
*************************************************1**************************
*************************************************1**************************
*************************************************1**************************
*************************************************1**************************
*************************************************1**************************
*************************************************1**************************
*************************************************1**************************
*************************************************1**************************
*************************************************1**************************
*************************************************1**************************
*************************************************1**************************
*************************************************1**************************
*************************************************1**************************
*************************************************1**************************
*************************************************1**************************
*************************************************1**************************
*************************************************1**************************
*************************************************1**************************
*************************************************1**************************
*************************************************1**************************
*************************************************1**************************
*************************************************1**************************
*************************************************1**************************
*************************************************1**************************
*************************************************1**************************
*************************************************1**************************
*************************************************1**************************
*************************************************1**************************
*************************************************1**************************
*************************************************1**************************
*************************************************1**************************
*************************************************1**************************
*************************************************1**************************
*************************************************1**************************
*************************************************1**************************
*************************************************1**************************
*************************************************1**************************
*************************************************1**************************
*************************************************1**************************
*************************************************1**************************
*************************************************1**************************
*************************************************1**************************
*************************************************1**************************
*************************************************1**************************
*************************************************1**************************
*************************************************1**************************
*************************************************1**************************
*************************************************1**************************
*************************************************1**************************
*************************************************1**************************
*************************************************1**************************
*************************************************1**************************
*************************************************1**************************
*************************************************1**************************
*************************************************1**************************
*************************************************1**************************
*************************************************1**************************
*************************************************1**************************
*************************************************1**************************
*************************************************1**************************
*************************************************1**************************
*************************************************1**************************
*************************************************1**************************
*************************************************1**************************
*************************************************1**************************
*************************************************1**************************
*************************************************1**************************
*************************************************1**************************
*************************************************1**************************
*************************************************1**************************
*************************************************1**************************
*************************************************1**************************
*************************************************1**************************
*************************************************1**************************
*************************************************1**************************
*************************************************1**************************
*************************************************1**************************
*************************************************1**************************
*************************************************1**************************
*************************************************1**************************
*************************************************1**************************
*************************************************1**************************
*************************************************1**************************
*************************************************1**************************
*************************************************1**************************
*************************************************1**************************
*************************************************1**************************
*************************************************1**************************
*************************************************1**************************
*************************************************1**************************
*************************************************1**************************
*************************************************1**************************
*************************************************1**************************
*************************************************1**************************
*************************************************1**************************
*************************************************1**************************
*************************************************1**************************
*************************************************1**************************
*************************************************1**************************
*************************************************1**************************
*************************************************1**************************
*************************************************1**************************
*************************************************1**************************
*************************************************1**************************
*************************************************1**************************
*************************************************1**************************
*************************************************1**************************
*************************************************1**************************
*************************************************1**************************
*************************************************1**************************
*************************************************1**************************
*************************************************1**************************
*************************************************1**************************
*************************************************1**************************
*************************************************1**************************
*************************************************1**************************
*************************************************1**************************
*************************************************1**************************
*************************************************1**************************
*************************************************1**************************
*************************************************1**************************
*************************************************1**************************
*************************************************1**************************
*************************************************1**************************
*************************************************1**************************
*************************************************1**************************
*************************************************1**************************
*************************************************1**************************
*************************************************1**************************
*************************************************1**************************
*************************************************1**************************
*************************************************1**************************
*************************************************1**************************
*************************************************1**************************
*************************************************1**************************
*************************************************1**************************
*************************************************1**************************
*************************************************1**************************
*************************************************1**************************
*************************************************1**************************
*************************************************1**************************
*************************************************1**************************
*************************************************1**************************
*************************************************1**************************
*************************************************1**************************
*************************************************1**************************
*************************************************1**************************
*************************************************1**************************
*************************************************1**************************
*************************************************1**************************
*************************************************1**************************
Heartbeat CPU 0 instructions: 10000002 cycles: 4831418 heartbeat IPC: 2.06979 cumulative IPC: 2.06979 (Simulation time: 0 hr 0 min 26 sec) 

Warmup complete CPU 0 instructions: 10000002 cycles: 4831418 (Simulation time: 0 hr 0 min 26 sec) 

*************************************************1**************************
*************************************************1**************************
*************************************************1**************************
*************************************************1**************************
*************************************************1**************************
*************************************************1**************************
*************************************************1**************************
*************************************************1**************************
*************************************************1**************************
*************************************************1**************************
*************************************************1**************************
*************************************************1**************************
*************************************************1**************************
*************************************************1**************************
*************************************************1**************************
*************************************************1**************************
*************************************************1**************************
*************************************************1**************************
*************************************************1**************************
*************************************************1**************************
*************************************************1**************************
*************************************************1**************************
*************************************************1**************************
*************************************************1**************************
*************************************************1**************************
*************************************************1**************************
*************************************************1**************************
*************************************************1**************************
*************************************************1**************************
*************************************************1**************************
*************************************************1**************************
*************************************************1**************************
*************************************************1**************************
*************************************************1**************************
*************************************************1**************************
*************************************************1**************************
*************************************************1**************************
*************************************************1**************************
*************************************************1**************************
*************************************************1**************************
*************************************************1**************************
*************************************************1**************************
*************************************************1**************************
*************************************************1**************************
*************************************************1**************************
*************************************************1**************************
*************************************************1**************************
*************************************************1**************************
*************************************************1**************************
*************************************************1**************************
*************************************************1**************************
*************************************************1**************************
*************************************************1**************************
*************************************************1**************************
*************************************************1**************************
*************************************************1**************************
*************************************************1**************************
*************************************************1**************************
*************************************************1**************************
*************************************************1**************************
*************************************************1**************************
*************************************************1**************************
*************************************************1**************************
*************************************************1**************************
*************************************************1**************************
*************************************************1**************************
*************************************************1**************************
*************************************************1**************************
*************************************************1**************************
*************************************************1**************************
*************************************************1**************************
*************************************************1**************************
*************************************************1**************************
*************************************************1**************************
*************************************************1**************************
*************************************************1**************************
*************************************************1**************************
*************************************************1**************************
*************************************************1**************************
*************************************************1**************************
*************************************************1**************************
*************************************************1**************************
*************************************************1**************************
*************************************************1**************************
*************************************************1**************************
*************************************************1**************************
*************************************************1**************************
*************************************************1**************************
*************************************************1**************************
*************************************************1**************************
*************************************************1**************************
*************************************************1**************************
*************************************************1**************************
*************************************************1**************************
*************************************************1**************************
*************************************************1**************************
*************************************************1**************************
*************************************************1**************************
*************************************************1**************************
*************************************************1**************************
*************************************************1**************************
*************************************************1**************************
*************************************************1**************************
*************************************************1**************************
*************************************************1**************************
*************************************************1**************************
*************************************************1**************************
*************************************************1**************************
*************************************************1**************************
*************************************************1**************************
*************************************************1**************************
*************************************************1**************************
*************************************************1**************************
*************************************************1**************************
*************************************************1**************************
*************************************************1**************************
*************************************************1**************************
*************************************************1**************************
*************************************************1**************************
*************************************************1**************************
*************************************************1**************************
*************************************************1**************************
*************************************************1**************************
*************************************************1**************************
*************************************************1**************************
*************************************************1**************************
*************************************************1**************************
*************************************************1**************************
*************************************************1**************************
*************************************************1**************************
*************************************************1**************************
*************************************************1**************************
*************************************************1**************************
*************************************************1**************************
*************************************************1**************************
*************************************************1**************************
*************************************************1**************************
*************************************************1**************************
*************************************************1**************************
*************************************************1**************************
*************************************************1**************************
*************************************************1**************************
*************************************************1**************************
*************************************************1**************************
*************************************************1**************************
*************************************************1**************************
*************************************************1**************************
*************************************************1**************************
*************************************************1**************************
*************************************************1**************************
*************************************************1**************************
*************************************************1**************************
*************************************************1**************************
*************************************************1**************************
*************************************************1**************************
*************************************************1**************************
*************************************************1**************************
*************************************************1**************************
*************************************************1**************************
*************************************************1**************************
*************************************************1**************************
*************************************************1**************************
*************************************************1**************************
*************************************************1**************************
*************************************************1**************************
*************************************************1**************************
*************************************************1**************************
*************************************************1**************************
*************************************************1**************************
*************************************************1**************************
*************************************************1**************************
*************************************************1**************************
*************************************************1**************************
*************************************************1**************************
*************************************************1**************************
*************************************************1**************************
*************************************************1**************************
*************************************************1**************************
*************************************************1**************************
*************************************************1**************************
*************************************************1**************************
*************************************************1**************************
*************************************************1**************************
*************************************************1**************************
*************************************************1**************************
*************************************************1**************************
*************************************************1**************************
*************************************************1**************************
*************************************************1**************************
*************************************************1**************************
*************************************************1**************************
*************************************************1**************************
*************************************************1**************************
*************************************************1**************************
*************************************************1**************************
*************************************************1**************************
*************************************************1**************************
*************************************************1**************************
*************************************************1**************************
*************************************************1**************************
*************************************************1**************************
*************************************************1**************************
*************************************************1**************************
*************************************************1**************************
*************************************************1**************************
*************************************************1**************************
*************************************************1**************************
*************************************************1**************************
*************************************************1**************************
*************************************************1**************************
*************************************************1**************************
*************************************************1**************************
*************************************************1**************************
*************************************************1**************************
*************************************************1**************************
*************************************************1**************************
*************************************************1**************************
*************************************************1**************************
*************************************************1**************************
*************************************************1**************************
*************************************************1**************************
*************************************************1**************************
*************************************************1**************************
*************************************************1**************************
*************************************************1**************************
*************************************************1**************************
*************************************************1**************************
*************************************************1**************************
*************************************************1**************************
*************************************************1**************************
*************************************************1**************************
*************************************************1**************************
*************************************************1**************************
*************************************************1**************************
*************************************************1**************************
*************************************************1**************************
*************************************************1**************************
*************************************************1**************************
*************************************************1**************************
*************************************************1**************************
*************************************************1**************************
*************************************************1**************************
*************************************************1**************************
*************************************************1**************************
*************************************************1**************************
*************************************************1**************************
*************************************************1**************************
*************************************************1**************************
Heartbeat CPU 0 instructions: 20000001 cycles: 11904326 heartbeat IPC: 1.41385 cumulative IPC: 1.41385 (Simulation time: 0 hr 0 min 49 sec) 
Finished CPU 0 instructions: 10000002 cycles: 7072917 cumulative IPC: 1.41384 (Simulation time: 0 hr 0 min 49 sec) 

ChampSim completed all CPUs

Region of Interest Statistics

CPU 0 cumulative IPC: 1.41384 instructions: 10000002 cycles: 7072917
L1D TOTAL     ACCESS:    5785709  HIT:    4615479  MISS:    1170230
L1D LOAD      ACCESS:    3122040  HIT:    2429782  MISS:     692258
L1D RFO       ACCESS:     794579  HIT:     728905  MISS:      65674
L1D PREFETCH  ACCESS:    1869090  HIT:    1456792  MISS:     412298
L1D WRITEBACK ACCESS:          0  HIT:          0  MISS:          0
L1D PREFETCH  REQUESTED:    2209243  ISSUED:    1955060  USEFUL:      24976  USELESS:     387309
L1D AVERAGE MISS LATENCY: 22.8468 cycles
L1I TOTAL     ACCESS:    1384661  HIT:    1124554  MISS:     260107
L1I LOAD      ACCESS:    1384661  HIT:    1124554  MISS:     260107
L1I RFO       ACCESS:          0  HIT:          0  MISS:          0
L1I PREFETCH  ACCESS:          0  HIT:          0  MISS:          0
L1I WRITEBACK ACCESS:          0  HIT:          0  MISS:          0
L1I PREFETCH  REQUESTED:          0  ISSUED:          0  USEFUL:          0  USELESS:          0
L1I AVERAGE MISS LATENCY: 14.249 cycles
L2C TOTAL     ACCESS:    2354210  HIT:    2299952  MISS:      54258
L2C LOAD      ACCESS:     940764  HIT:     939080  MISS:       1684
L2C RFO       ACCESS:      64879  HIT:      58969  MISS:       5910
L2C PREFETCH  ACCESS:    1273535  HIT:    1226872  MISS:      46663
L2C WRITEBACK ACCESS:      75032  HIT:      75031  MISS:          1
L2C PREFETCH  REQUESTED:    1376073  ISSUED:    1055020  USEFUL:      46300  USELESS:        243
L2C AVERAGE MISS LATENCY: 173.48 cycles
LLC TOTAL     ACCESS:      60120  HIT:      33499  MISS:      26621
LLC LOAD      ACCESS:       1566  HIT:        745  MISS:        821
LLC RFO       ACCESS:       5910  HIT:          0  MISS:       5910
LLC PREFETCH  ACCESS:      46781  HIT:      26895  MISS:      19886
LLC WRITEBACK ACCESS:       5863  HIT:       5859  MISS:          4
LLC PREFETCH  REQUESTED:          0  ISSUED:          0  USEFUL:         68  USELESS:      18391
LLC AVERAGE MISS LATENCY: 291.603 cycles
Major fault: 0 Minor fault: 1071

OPTgen accesses: 260
OPTgen hits: 404
OPTgen hit rate: 155.385



DRAM Statistics
 CHANNEL 0
 RQ ROW_BUFFER_HIT:      11188  ROW_BUFFER_MISS:      15429
 DBUS_CONGESTED:       5364
 WQ ROW_BUFFER_HIT:        956  ROW_BUFFER_MISS:       4460  FULL:          0

 AVG_CONGESTED_CYCLE: 5

CPU 0 Branch Prediction Accuracy: 99.3409% MPKI: 0.06 Average ROB Occupancy at Mispredict: 10.1983

Branch types
NOT_BRANCH: 9908963 99.0896%
BRANCH_DIRECT_JUMP: 11094 0.11094%
BRANCH_INDIRECT: 1824 0.01824%
BRANCH_CONDITIONAL: 56183 0.56183%
BRANCH_DIRECT_CALL: 10969 0.10969%
BRANCH_INDIRECT_CALL: 0 0%
BRANCH_RETURN: 10969 0.10969%
BRANCH_OTHER: 0 0%

