
*** ChampSim Multicore Out-of-Order Simulator ***

Warmup Instructions: 10000000
Simulation Instructions: 10000000
Number of CPUs: 1
LLC sets: 2048
LLC ways: 16
Off-chip DRAM Size: 4096 MB Channels: 1 Width: 64-bit Data Rate: 3200 MT/s

CPU 0 runs ../traces//619.lbm_s-2676B.champsimtrace.xz
CPU 0 Bimodal branch predictor
CPU 0 L1D IP-based stride prefetcher
CPU 0 L2C IP-based stride prefetcher
Initialize Hawkeye state
*************************************************1**************************
*************************************************1**************************
*************************************************1**************************
*************************************************1**************************
*************************************************1**************************
*************************************************1**************************
*************************************************1**************************
*************************************************1**************************
*************************************************1**************************
*************************************************1**************************
*************************************************1**************************
*************************************************1**************************
*************************************************1**************************
*************************************************1**************************
*************************************************1**************************
*************************************************1**************************
*************************************************1**************************
*************************************************1**************************
*************************************************1**************************
*************************************************1**************************
*************************************************1**************************
*************************************************1**************************
*************************************************1**************************
*************************************************1**************************
*************************************************1**************************
*************************************************1**************************
*************************************************1**************************
*************************************************1**************************
*************************************************1**************************
*************************************************1**************************
*************************************************1**************************
*************************************************1**************************
*************************************************1**************************
*************************************************1**************************
*************************************************1**************************
*************************************************1**************************
*************************************************1**************************
*************************************************1**************************
*************************************************1**************************
*************************************************1**************************
*************************************************1**************************
*************************************************1**************************
*************************************************1**************************
*************************************************1**************************
*************************************************1**************************
*************************************************1**************************
*************************************************1**************************
*************************************************1**************************
*************************************************1**************************
*************************************************1**************************
*************************************************1**************************
*************************************************1**************************
*************************************************1**************************
*************************************************1**************************
*************************************************1**************************
*************************************************1**************************
*************************************************1**************************
*************************************************1**************************
*************************************************1**************************
*************************************************1**************************
*************************************************1**************************
*************************************************1**************************
*************************************************1**************************
*************************************************1**************************
*************************************************1**************************
*************************************************1**************************
*************************************************1**************************
*************************************************1**************************
*************************************************1**************************
*************************************************1**************************
*************************************************1**************************
*************************************************1**************************
*************************************************1**************************
*************************************************1**************************
*************************************************1**************************
*************************************************1**************************
*************************************************1**************************
*************************************************1**************************
*************************************************1**************************
*************************************************1**************************
*************************************************1**************************
*************************************************1**************************
*************************************************1**************************
*************************************************1**************************
*************************************************1**************************
*************************************************1**************************
*************************************************1**************************
*************************************************1**************************
*************************************************1**************************
*************************************************1**************************
*************************************************1**************************
*************************************************1**************************
*************************************************1**************************
*************************************************1**************************
*************************************************1**************************
*************************************************1**************************
*************************************************1**************************
*************************************************1**************************
*************************************************1**************************
*************************************************1**************************
*************************************************1**************************
*************************************************1**************************
*************************************************1**************************
*************************************************1**************************
*************************************************1**************************
*************************************************1**************************
*************************************************1**************************
*************************************************1**************************
*************************************************1**************************
*************************************************1**************************
*************************************************1**************************
*************************************************1**************************
*************************************************1**************************
*************************************************1**************************
*************************************************1**************************
*************************************************1**************************
*************************************************1**************************
*************************************************1**************************
*************************************************1**************************
*************************************************1**************************
*************************************************1**************************
*************************************************1**************************
*************************************************1**************************
*************************************************1**************************
*************************************************1**************************
*************************************************1**************************
*************************************************1**************************
*************************************************1**************************
*************************************************1**************************
*************************************************1**************************
*************************************************1**************************
*************************************************1**************************
*************************************************1**************************
*************************************************1**************************
*************************************************1**************************
*************************************************1**************************
*************************************************1**************************
*************************************************1**************************
*************************************************1**************************
*************************************************1**************************
*************************************************1**************************
*************************************************1**************************
*************************************************1**************************
*************************************************1**************************
*************************************************1**************************
*************************************************1**************************
*************************************************1**************************
*************************************************1**************************
*************************************************1**************************
*************************************************1**************************
*************************************************1**************************
*************************************************1**************************
*************************************************1**************************
*************************************************1**************************
*************************************************1**************************
Heartbeat CPU 0 instructions: 10000003 cycles: 3490716 heartbeat IPC: 2.86474 cumulative IPC: 2.86474 (Simulation time: 0 hr 0 min 31 sec) 

Warmup complete CPU 0 instructions: 10000003 cycles: 3490716 (Simulation time: 0 hr 0 min 31 sec) 

*************************************************1**************************
*************************************************1**************************
*************************************************1**************************
*************************************************1**************************
*************************************************1**************************
*************************************************1**************************
*************************************************1**************************
*************************************************1**************************
*************************************************1**************************
*************************************************1**************************
*************************************************1**************************
*************************************************1**************************
*************************************************1**************************
*************************************************1**************************
*************************************************1**************************
*************************************************1**************************
*************************************************1**************************
*************************************************1**************************
*************************************************1**************************
*************************************************1**************************
*************************************************1**************************
*************************************************1**************************
*************************************************1**************************
*************************************************1**************************
*************************************************1**************************
*************************************************1**************************
*************************************************1**************************
*************************************************1**************************
*************************************************1**************************
*************************************************1**************************
*************************************************1**************************
*************************************************1**************************
*************************************************1**************************
*************************************************1**************************
*************************************************1**************************
*************************************************1**************************
*************************************************1**************************
*************************************************1**************************
*************************************************1**************************
*************************************************1**************************
*************************************************1**************************
*************************************************1**************************
*************************************************1**************************
*************************************************1**************************
*************************************************1**************************
*************************************************1**************************
*************************************************1**************************
*************************************************1**************************
*************************************************1**************************
*************************************************1**************************
*************************************************1**************************
*************************************************1**************************
*************************************************1**************************
*************************************************1**************************
*************************************************1**************************
*************************************************1**************************
*************************************************1**************************
*************************************************1**************************
*************************************************1**************************
*************************************************1**************************
*************************************************1**************************
*************************************************1**************************
*************************************************1**************************
*************************************************1**************************
*************************************************1**************************
*************************************************1**************************
*************************************************1**************************
*************************************************1**************************
*************************************************1**************************
*************************************************1**************************
*************************************************1**************************
*************************************************1**************************
*************************************************1**************************
*************************************************1**************************
*************************************************1**************************
*************************************************1**************************
*************************************************1**************************
*************************************************1**************************
*************************************************1**************************
*************************************************1**************************
*************************************************1**************************
*************************************************1**************************
*************************************************1**************************
*************************************************1**************************
*************************************************1**************************
*************************************************1**************************
*************************************************1**************************
*************************************************1**************************
*************************************************1**************************
*************************************************1**************************
*************************************************1**************************
*************************************************1**************************
*************************************************1**************************
*************************************************1**************************
*************************************************1**************************
*************************************************1**************************
*************************************************1**************************
*************************************************1**************************
*************************************************1**************************
*************************************************1**************************
*************************************************1**************************
*************************************************1**************************
*************************************************1**************************
*************************************************1**************************
*************************************************1**************************
*************************************************1**************************
*************************************************1**************************
*************************************************1**************************
*************************************************1**************************
*************************************************1**************************
*************************************************1**************************
*************************************************1**************************
*************************************************1**************************
*************************************************1**************************
*************************************************1**************************
*************************************************1**************************
*************************************************1**************************
*************************************************1**************************
*************************************************1**************************
*************************************************1**************************
*************************************************1**************************
*************************************************1**************************
*************************************************1**************************
*************************************************1**************************
*************************************************1**************************
*************************************************1**************************
*************************************************1**************************
*************************************************1**************************
*************************************************1**************************
*************************************************1**************************
*************************************************1**************************
*************************************************1**************************
*************************************************1**************************
*************************************************1**************************
*************************************************1**************************
*************************************************1**************************
*************************************************1**************************
*************************************************1**************************
*************************************************1**************************
*************************************************1**************************
*************************************************1**************************
*************************************************1**************************
*************************************************1**************************
*************************************************1**************************
*************************************************1**************************
*************************************************1**************************
*************************************************1**************************
*************************************************1**************************
*************************************************1**************************
*************************************************1**************************
*************************************************1**************************
*************************************************1**************************
*************************************************1**************************
*************************************************1**************************
*************************************************1**************************
*************************************************1**************************
*************************************************1**************************
*************************************************1**************************
*************************************************1**************************
*************************************************1**************************
*************************************************1**************************
*************************************************1**************************
*************************************************1**************************
*************************************************1**************************
*************************************************1**************************
*************************************************1**************************
*************************************************1**************************
*************************************************1**************************
*************************************************1**************************
*************************************************1**************************
*************************************************1**************************
*************************************************1**************************
*************************************************1**************************
*************************************************1**************************
*************************************************1**************************
*************************************************1**************************
*************************************************1**************************
*************************************************1**************************
*************************************************1**************************
*************************************************1**************************
*************************************************1**************************
*************************************************1**************************
*************************************************1**************************
*************************************************1**************************
*************************************************1**************************
*************************************************1**************************
*************************************************1**************************
*************************************************1**************************
*************************************************1**************************
*************************************************1**************************
*************************************************1**************************
*************************************************1**************************
*************************************************1**************************
*************************************************1**************************
*************************************************1**************************
*************************************************1**************************
*************************************************1**************************
*************************************************1**************************
*************************************************1**************************
*************************************************1**************************
*************************************************1**************************
*************************************************1**************************
*************************************************1**************************
*************************************************1**************************
*************************************************1**************************
*************************************************1**************************
*************************************************1**************************
*************************************************1**************************
*************************************************1**************************
*************************************************1**************************
*************************************************1**************************
*************************************************1**************************
*************************************************1**************************
*************************************************1**************************
*************************************************1**************************
*************************************************1**************************
*************************************************1**************************
*************************************************1**************************
*************************************************1**************************
*************************************************1**************************
*************************************************1**************************
*************************************************1**************************
*************************************************1**************************
*************************************************1**************************
*************************************************1**************************
*************************************************1**************************
*************************************************1**************************
*************************************************1**************************
*************************************************1**************************
*************************************************1**************************
*************************************************1**************************
*************************************************1**************************
*************************************************1**************************
*************************************************1**************************
*************************************************1**************************
*************************************************1**************************
*************************************************1**************************
*************************************************1**************************
*************************************************1**************************
*************************************************1**************************
*************************************************1**************************
*************************************************1**************************
*************************************************1**************************
*************************************************1**************************
*************************************************1**************************
*************************************************1**************************
*************************************************1**************************
*************************************************1**************************
*************************************************1**************************
*************************************************1**************************
*************************************************1**************************
*************************************************1**************************
*************************************************1**************************
*************************************************1**************************
*************************************************1**************************
*************************************************1**************************
*************************************************1**************************
*************************************************1**************************
*************************************************1**************************
*************************************************1**************************
*************************************************1**************************
*************************************************1**************************
*************************************************1**************************
*************************************************1**************************
*************************************************1**************************
*************************************************1**************************
*************************************************1**************************
*************************************************1**************************
*************************************************1**************************
*************************************************1**************************
*************************************************1**************************
*************************************************1**************************
*************************************************1**************************
*************************************************1**************************
*************************************************1**************************
*************************************************1**************************
*************************************************1**************************
*************************************************1**************************
*************************************************1**************************
*************************************************1**************************
*************************************************1**************************
*************************************************1**************************
*************************************************1**************************
*************************************************1**************************
*************************************************1**************************
*************************************************1**************************
*************************************************1**************************
*************************************************1**************************
*************************************************1**************************
*************************************************1**************************
*************************************************1**************************
*************************************************1**************************
*************************************************1**************************
*************************************************1**************************
*************************************************1**************************
*************************************************1**************************
*************************************************1**************************
*************************************************1**************************
*************************************************1**************************
*************************************************1**************************
*************************************************1**************************
*************************************************1**************************
*************************************************1**************************
*************************************************1**************************
*************************************************1**************************
*************************************************1**************************
*************************************************1**************************
*************************************************1**************************
*************************************************1**************************
*************************************************1**************************
*************************************************1**************************
*************************************************1**************************
*************************************************1**************************
*************************************************1**************************
*************************************************1**************************
*************************************************1**************************
*************************************************1**************************
*************************************************1**************************
*************************************************1**************************
*************************************************1**************************
*************************************************1**************************
*************************************************1**************************
*************************************************1**************************
*************************************************1**************************
*************************************************1**************************
*************************************************1**************************
*************************************************1**************************
*************************************************1**************************
*************************************************1**************************
*************************************************1**************************
*************************************************1**************************
*************************************************1**************************
*************************************************1**************************
*************************************************1**************************
*************************************************1**************************
*************************************************1**************************
*************************************************1**************************
*************************************************1**************************
*************************************************1**************************
*************************************************1**************************
*************************************************1**************************
*************************************************1**************************
*************************************************1**************************
*************************************************1**************************
*************************************************1**************************
*************************************************1**************************
*************************************************1**************************
*************************************************1**************************
*************************************************1**************************
*************************************************1**************************
*************************************************1**************************
*************************************************1**************************
*************************************************1**************************
*************************************************1**************************
*************************************************1**************************
*************************************************1**************************
*************************************************1**************************
*************************************************1**************************
*************************************************1**************************
*************************************************1**************************
*************************************************1**************************
*************************************************1**************************
*************************************************1**************************
*************************************************1**************************
*************************************************1**************************
*************************************************1**************************
*************************************************1**************************
*************************************************1**************************
*************************************************1**************************
*************************************************1**************************
*************************************************1**************************
*************************************************1**************************
*************************************************1**************************
*************************************************1**************************
*************************************************1**************************
*************************************************1**************************
*************************************************1**************************
*************************************************1**************************
*************************************************1**************************
*************************************************1**************************
*************************************************1**************************
*************************************************1**************************
*************************************************1**************************
*************************************************1**************************
*************************************************1**************************
*************************************************1**************************
*************************************************1**************************
*************************************************1**************************
*************************************************1**************************
*************************************************1**************************
*************************************************1**************************
*************************************************1**************************
*************************************************1**************************
*************************************************1**************************
*************************************************1**************************
*************************************************1**************************
*************************************************1**************************
*************************************************1**************************
*************************************************1**************************
*************************************************1**************************
*************************************************1**************************
*************************************************1**************************
*************************************************1**************************
*************************************************1**************************
*************************************************1**************************
*************************************************1**************************
*************************************************1**************************
*************************************************1**************************
*************************************************1**************************
*************************************************1**************************
*************************************************1**************************
*************************************************1**************************
*************************************************1**************************
*************************************************1**************************
*************************************************1**************************
*************************************************1**************************
*************************************************1**************************
*************************************************1**************************
*************************************************1**************************
*************************************************1**************************
*************************************************1**************************
*************************************************1**************************
*************************************************1**************************
*************************************************1**************************
*************************************************1**************************
*************************************************1**************************
*************************************************1**************************
*************************************************1**************************
*************************************************1**************************
*************************************************1**************************
*************************************************1**************************
*************************************************1**************************
*************************************************1**************************
*************************************************1**************************
*************************************************1**************************
*************************************************1**************************
*************************************************1**************************
*************************************************1**************************
*************************************************1**************************
*************************************************1**************************
*************************************************1**************************
*************************************************1**************************
*************************************************1**************************
*************************************************1**************************
*************************************************1**************************
*************************************************1**************************
*************************************************1**************************
*************************************************1**************************
*************************************************1**************************
*************************************************1**************************
*************************************************1**************************
*************************************************1**************************
*************************************************1**************************
*************************************************1**************************
*************************************************1**************************
*************************************************1**************************
*************************************************1**************************
*************************************************1**************************
*************************************************1**************************
*************************************************1**************************
*************************************************1**************************
*************************************************1**************************
*************************************************1**************************
*************************************************1**************************
*************************************************1**************************
*************************************************1**************************
*************************************************1**************************
*************************************************1**************************
*************************************************1**************************
*************************************************1**************************
*************************************************1**************************
*************************************************1**************************
*************************************************1**************************
*************************************************1**************************
*************************************************1**************************
*************************************************1**************************
*************************************************1**************************
*************************************************1**************************
*************************************************1**************************
*************************************************1**************************
*************************************************1**************************
*************************************************1**************************
*************************************************1**************************
*************************************************1**************************
*************************************************1**************************
*************************************************1**************************
*************************************************1**************************
*************************************************1**************************
*************************************************1**************************
*************************************************1**************************
*************************************************1**************************
*************************************************1**************************
*************************************************1**************************
*************************************************1**************************
*************************************************1**************************
*************************************************1**************************
*************************************************1**************************
*************************************************1**************************
*************************************************1**************************
*************************************************1**************************
*************************************************1**************************
*************************************************1**************************
*************************************************1**************************
*************************************************1**************************
*************************************************1**************************
*************************************************1**************************
*************************************************1**************************
*************************************************1**************************
*************************************************1**************************
*************************************************1**************************
*************************************************1**************************
*************************************************1**************************
*************************************************1**************************
*************************************************1**************************
*************************************************1**************************
*************************************************1**************************
*************************************************1**************************
*************************************************1**************************
*************************************************1**************************
*************************************************1**************************
*************************************************1**************************
*************************************************1**************************
*************************************************1**************************
*************************************************1**************************
*************************************************1**************************
*************************************************1**************************
*************************************************1**************************
*************************************************1**************************
*************************************************1**************************
*************************************************1**************************
*************************************************1**************************
*************************************************1**************************
*************************************************1**************************
*************************************************1**************************
*************************************************1**************************
*************************************************1**************************
*************************************************1**************************
*************************************************1**************************
*************************************************1**************************
*************************************************1**************************
*************************************************1**************************
*************************************************1**************************
*************************************************1**************************
*************************************************1**************************
*************************************************1**************************
*************************************************1**************************
*************************************************1**************************
*************************************************1**************************
*************************************************1**************************
*************************************************1**************************
*************************************************1**************************
*************************************************1**************************
*************************************************1**************************
*************************************************1**************************
*************************************************1**************************
*************************************************1**************************
*************************************************1**************************
*************************************************1**************************
*************************************************1**************************
*************************************************1**************************
*************************************************1**************************
*************************************************1**************************
*************************************************1**************************
*************************************************1**************************
*************************************************1**************************
*************************************************1**************************
*************************************************1**************************
*************************************************1**************************
*************************************************1**************************
*************************************************1**************************
*************************************************1**************************
*************************************************1**************************
*************************************************1**************************
*************************************************1**************************
*************************************************1**************************
*************************************************1**************************
*************************************************1**************************
*************************************************1**************************
*************************************************1**************************
*************************************************1**************************
*************************************************1**************************
*************************************************1**************************
*************************************************1**************************
*************************************************1**************************
*************************************************1**************************
*************************************************1**************************
*************************************************1**************************
*************************************************1**************************
*************************************************1**************************
*************************************************1**************************
*************************************************1**************************
*************************************************1**************************
*************************************************1**************************
*************************************************1**************************
*************************************************1**************************
*************************************************1**************************
*************************************************1**************************
*************************************************1**************************
*************************************************1**************************
*************************************************1**************************
*************************************************1**************************
*************************************************1**************************
*************************************************1**************************
*************************************************1**************************
*************************************************1**************************
*************************************************1**************************
*************************************************1**************************
*************************************************1**************************
*************************************************1**************************
*************************************************1**************************
*************************************************1**************************
*************************************************1**************************
*************************************************1**************************
*************************************************1**************************
*************************************************1**************************
*************************************************1**************************
*************************************************1**************************
*************************************************1**************************
*************************************************1**************************
*************************************************1**************************
*************************************************1**************************
*************************************************1**************************
*************************************************1**************************
*************************************************1**************************
*************************************************1**************************
*************************************************1**************************
*************************************************1**************************
*************************************************1**************************
*************************************************1**************************
*************************************************1**************************
*************************************************1**************************
Heartbeat CPU 0 instructions: 20000001 cycles: 24472144 heartbeat IPC: 0.476612 cumulative IPC: 0.476612 (Simulation time: 0 hr 1 min 18 sec) 
Finished CPU 0 instructions: 10000002 cycles: 20981429 cumulative IPC: 0.476612 (Simulation time: 0 hr 1 min 18 sec) 

ChampSim completed all CPUs

Region of Interest Statistics

CPU 0 cumulative IPC: 0.476612 instructions: 10000002 cycles: 20981429
L1D TOTAL     ACCESS:    2524363  HIT:    1799988  MISS:     724375
L1D LOAD      ACCESS:     764557  HIT:     654795  MISS:     109762
L1D RFO       ACCESS:    1757601  HIT:    1142988  MISS:     614613
L1D PREFETCH  ACCESS:       2205  HIT:       2205  MISS:          0
L1D WRITEBACK ACCESS:          0  HIT:          0  MISS:          0
L1D PREFETCH  REQUESTED:     145087  ISSUED:     131104  USEFUL:          0  USELESS:          0
L1D AVERAGE MISS LATENCY: 354.208 cycles
L1I TOTAL     ACCESS:    1558062  HIT:    1558062  MISS:          0
L1I LOAD      ACCESS:    1558062  HIT:    1558062  MISS:          0
L1I RFO       ACCESS:          0  HIT:          0  MISS:          0
L1I PREFETCH  ACCESS:          0  HIT:          0  MISS:          0
L1I WRITEBACK ACCESS:          0  HIT:          0  MISS:          0
L1I PREFETCH  REQUESTED:          0  ISSUED:          0  USEFUL:          0  USELESS:          0
L1I AVERAGE MISS LATENCY: -nan cycles
L2C TOTAL     ACCESS:    1505567  HIT:    1063222  MISS:     442345
L2C LOAD      ACCESS:     109762  HIT:      52766  MISS:      56996
L2C RFO       ACCESS:     614613  HIT:     282044  MISS:     332569
L2C PREFETCH  ACCESS:     166576  HIT:     113808  MISS:      52768
L2C WRITEBACK ACCESS:     614616  HIT:     614604  MISS:         12
L2C PREFETCH  REQUESTED:     167009  ISSUED:     166953  USEFUL:      52762  USELESS:          0
L2C AVERAGE MISS LATENCY: 608.977 cycles
LLC TOTAL     ACCESS:     802098  HIT:      64143  MISS:     737955
LLC LOAD      ACCESS:      55331  HIT:       8727  MISS:      46604
LLC RFO       ACCESS:     332567  HIT:       5152  MISS:     327415
LLC PREFETCH  ACCESS:      81297  HIT:      18060  MISS:      63237
LLC WRITEBACK ACCESS:     332903  HIT:      32204  MISS:     300699
LLC PREFETCH  REQUESTED:          0  ISSUED:          0  USEFUL:       8720  USELESS:      51215
LLC AVERAGE MISS LATENCY: 364.672 cycles
Major fault: 0 Minor fault: 10071
CPU 0 L2C PC-based stride prefetcher final stats
CPU 0 L2C PC-based stride prefetcher final stats
OPTgen accesses: 12067
OPTgen hits: 786
OPTgen hit rate: 6.51363



DRAM Statistics
 CHANNEL 0
 RQ ROW_BUFFER_HIT:      52302  ROW_BUFFER_MISS:     384865
 DBUS_CONGESTED:     481269
 WQ ROW_BUFFER_HIT:      69294  ROW_BUFFER_MISS:     261170  FULL:        103

 AVG_CONGESTED_CYCLE: 6

CPU 0 Branch Prediction Accuracy: 95.6399% MPKI: 0.7381 Average ROB Occupancy at Mispredict: 237.582

Branch types
NOT_BRANCH: 9830569 98.3057%
BRANCH_DIRECT_JUMP: 25108 0.25108%
BRANCH_INDIRECT: 0 0%
BRANCH_CONDITIONAL: 144178 1.44178%
BRANCH_DIRECT_CALL: 0 0%
BRANCH_INDIRECT_CALL: 0 0%
BRANCH_RETURN: 0 0%
BRANCH_OTHER: 0 0%

