
*** ChampSim Multicore Out-of-Order Simulator ***

Warmup Instructions: 10000000
Simulation Instructions: 10000000
Number of CPUs: 1
LLC sets: 2048
LLC ways: 16
Off-chip DRAM Size: 4096 MB Channels: 1 Width: 64-bit Data Rate: 3200 MT/s

CPU 0 runs ../traces//623.xalancbmk_s-10B.champsimtrace.xz
CPU 0 Bimodal branch predictor
Initialize Hawkeye state
*************************************************1**************************
*************************************************1**************************
*************************************************1**************************
*************************************************1**************************
*************************************************1**************************
*************************************************1**************************
*************************************************1**************************
*************************************************1**************************
*************************************************1**************************
*************************************************1**************************
*************************************************1**************************
*************************************************1**************************
*************************************************1**************************
*************************************************1**************************
*************************************************1**************************
*************************************************1**************************
*************************************************1**************************
*************************************************1**************************
*************************************************1**************************
*************************************************1**************************
*************************************************1**************************
*************************************************1**************************
*************************************************1**************************
*************************************************1**************************
*************************************************1**************************
*************************************************1**************************
*************************************************1**************************
*************************************************1**************************
*************************************************1**************************
*************************************************1**************************
*************************************************1**************************
*************************************************1**************************
*************************************************1**************************
*************************************************1**************************
*************************************************1**************************
*************************************************1**************************
*************************************************1**************************
*************************************************1**************************
*************************************************1**************************
*************************************************1**************************
*************************************************1**************************
*************************************************1**************************
*************************************************1**************************
*************************************************1**************************
*************************************************1**************************
*************************************************1**************************
*************************************************1**************************
*************************************************1**************************
*************************************************1**************************
*************************************************1**************************
*************************************************1**************************
*************************************************1**************************
*************************************************1**************************
*************************************************1**************************
*************************************************1**************************
*************************************************1**************************
*************************************************1**************************
*************************************************1**************************
*************************************************1**************************
*************************************************1**************************
*************************************************1**************************
*************************************************1**************************
*************************************************1**************************
*************************************************1**************************
*************************************************1**************************
*************************************************1**************************
*************************************************1**************************
*************************************************1**************************
*************************************************1**************************
*************************************************1**************************
*************************************************1**************************
*************************************************1**************************
*************************************************1**************************
*************************************************1**************************
*************************************************1**************************
*************************************************1**************************
*************************************************1**************************
*************************************************1**************************
*************************************************1**************************
*************************************************1**************************
*************************************************1**************************
*************************************************1**************************
*************************************************1**************************
*************************************************1**************************
*************************************************1**************************
*************************************************1**************************
*************************************************1**************************
*************************************************1**************************
*************************************************1**************************
*************************************************1**************************
*************************************************1**************************
*************************************************1**************************
*************************************************1**************************
*************************************************1**************************
*************************************************1**************************
*************************************************1**************************
*************************************************1**************************
*************************************************1**************************
*************************************************1**************************
*************************************************1**************************
*************************************************1**************************
*************************************************1**************************
*************************************************1**************************
*************************************************1**************************
*************************************************1**************************
*************************************************1**************************
*************************************************1**************************
*************************************************1**************************
*************************************************1**************************
*************************************************1**************************
*************************************************1**************************
*************************************************1**************************
*************************************************1**************************
*************************************************1**************************
*************************************************1**************************
*************************************************1**************************
*************************************************1**************************
*************************************************1**************************
*************************************************1**************************
*************************************************1**************************
*************************************************1**************************
*************************************************1**************************
*************************************************1**************************
*************************************************1**************************
*************************************************1**************************
*************************************************1**************************
*************************************************1**************************
*************************************************1**************************
*************************************************1**************************
*************************************************1**************************
*************************************************1**************************
*************************************************1**************************
*************************************************1**************************
*************************************************1**************************
*************************************************1**************************
*************************************************1**************************
*************************************************1**************************
*************************************************1**************************
*************************************************1**************************
*************************************************1**************************
*************************************************1**************************
*************************************************1**************************
*************************************************1**************************
*************************************************1**************************
*************************************************1**************************
*************************************************1**************************
*************************************************1**************************
*************************************************1**************************
*************************************************1**************************
*************************************************1**************************
*************************************************1**************************
*************************************************1**************************
*************************************************1**************************
*************************************************1**************************
*************************************************1**************************
*************************************************1**************************
*************************************************1**************************
*************************************************1**************************
*************************************************1**************************
*************************************************1**************************
*************************************************1**************************
*************************************************1**************************
*************************************************1**************************
*************************************************1**************************
*************************************************1**************************
*************************************************1**************************
*************************************************1**************************
*************************************************1**************************
*************************************************1**************************
*************************************************1**************************
*************************************************1**************************
*************************************************1**************************
*************************************************1**************************
*************************************************1**************************
*************************************************1**************************
*************************************************1**************************
*************************************************1**************************
*************************************************1**************************
*************************************************1**************************
*************************************************1**************************
*************************************************1**************************
*************************************************1**************************
*************************************************1**************************
*************************************************1**************************
*************************************************1**************************
*************************************************1**************************
*************************************************1**************************
*************************************************1**************************
*************************************************1**************************
*************************************************1**************************
*************************************************1**************************
*************************************************1**************************
*************************************************1**************************
*************************************************1**************************
*************************************************1**************************
*************************************************1**************************
*************************************************1**************************
*************************************************1**************************
*************************************************1**************************
*************************************************1**************************
*************************************************1**************************
*************************************************1**************************
*************************************************1**************************
*************************************************1**************************
*************************************************1**************************
*************************************************1**************************
*************************************************1**************************
*************************************************1**************************
*************************************************1**************************
*************************************************1**************************
*************************************************1**************************
*************************************************1**************************
*************************************************1**************************
*************************************************1**************************
*************************************************1**************************
*************************************************1**************************
*************************************************1**************************
*************************************************1**************************
*************************************************1**************************
*************************************************1**************************
*************************************************1**************************
*************************************************1**************************
*************************************************1**************************
*************************************************1**************************
*************************************************1**************************
*************************************************1**************************
*************************************************1**************************
*************************************************1**************************
*************************************************1**************************
*************************************************1**************************
*************************************************1**************************
*************************************************1**************************
*************************************************1**************************
*************************************************1**************************
*************************************************1**************************
*************************************************1**************************
*************************************************1**************************
*************************************************1**************************
*************************************************1**************************
*************************************************1**************************
*************************************************1**************************
*************************************************1**************************
*************************************************1**************************
*************************************************1**************************
*************************************************1**************************
*************************************************1**************************
*************************************************1**************************
*************************************************1**************************
*************************************************1**************************
*************************************************1**************************
*************************************************1**************************
*************************************************1**************************
*************************************************1**************************
*************************************************1**************************
*************************************************1**************************
*************************************************1**************************
*************************************************1**************************
*************************************************1**************************
*************************************************1**************************
*************************************************1**************************
*************************************************1**************************
*************************************************1**************************
*************************************************1**************************
*************************************************1**************************
*************************************************1**************************
*************************************************1**************************
*************************************************1**************************
*************************************************1**************************
*************************************************1**************************
*************************************************1**************************
*************************************************1**************************
*************************************************1**************************
*************************************************1**************************
*************************************************1**************************
*************************************************1**************************
*************************************************1**************************
*************************************************1**************************
*************************************************1**************************
*************************************************1**************************
*************************************************1**************************
*************************************************1**************************
*************************************************1**************************
*************************************************1**************************
*************************************************1**************************
*************************************************1**************************
*************************************************1**************************
*************************************************1**************************
*************************************************1**************************
*************************************************1**************************
*************************************************1**************************
*************************************************1**************************
*************************************************1**************************
*************************************************1**************************
*************************************************1**************************
*************************************************1**************************
*************************************************1**************************
*************************************************1**************************
*************************************************1**************************
*************************************************1**************************
*************************************************1**************************
*************************************************1**************************
*************************************************1**************************
*************************************************1**************************
*************************************************1**************************
*************************************************1**************************
*************************************************1**************************
*************************************************1**************************
*************************************************1**************************
*************************************************1**************************
*************************************************1**************************
*************************************************1**************************
*************************************************1**************************
*************************************************1**************************
*************************************************1**************************
*************************************************1**************************
*************************************************1**************************
*************************************************1**************************
*************************************************1**************************
*************************************************1**************************
*************************************************1**************************
*************************************************1**************************
*************************************************1**************************
*************************************************0**************************
*************************************************1**************************
*************************************************1**************************
*************************************************1**************************
*************************************************1**************************
*************************************************0**************************
*************************************************1**************************
*************************************************1**************************
*************************************************1**************************
*************************************************1**************************
*************************************************1**************************
*************************************************1**************************
*************************************************1**************************
*************************************************1**************************
*************************************************1**************************
*************************************************1**************************
*************************************************1**************************
*************************************************1**************************
*************************************************1**************************
*************************************************1**************************
*************************************************1**************************
*************************************************1**************************
*************************************************1**************************
*************************************************1**************************
*************************************************1**************************
*************************************************1**************************
*************************************************1**************************
*************************************************1**************************
*************************************************1**************************
*************************************************1**************************
*************************************************1**************************
*************************************************1**************************
*************************************************1**************************
*************************************************1**************************
*************************************************1**************************
*************************************************1**************************
*************************************************1**************************
*************************************************1**************************
*************************************************1**************************
*************************************************1**************************
*************************************************1**************************
*************************************************1**************************
*************************************************1**************************
*************************************************1**************************
*************************************************1**************************
*************************************************1**************************
*************************************************1**************************
*************************************************1**************************
*************************************************1**************************
*************************************************1**************************
*************************************************1**************************
*************************************************1**************************
*************************************************1**************************
*************************************************1**************************
*************************************************1**************************
*************************************************1**************************
*************************************************1**************************
*************************************************1**************************
*************************************************1**************************
*************************************************1**************************
*************************************************1**************************
*************************************************1**************************
*************************************************1**************************
*************************************************1**************************
*************************************************1**************************
*************************************************1**************************
*************************************************1**************************
*************************************************1**************************
*************************************************1**************************
*************************************************1**************************
*************************************************1**************************
*************************************************1**************************
*************************************************1**************************
*************************************************1**************************
*************************************************1**************************
*************************************************1**************************
*************************************************1**************************
*************************************************1**************************
*************************************************1**************************
*************************************************1**************************
*************************************************1**************************
*************************************************1**************************
*************************************************1**************************
*************************************************1**************************
*************************************************1**************************
*************************************************1**************************
*************************************************1**************************
*************************************************1**************************
*************************************************1**************************
*************************************************1**************************
*************************************************1**************************
*************************************************1**************************
*************************************************1**************************
*************************************************1**************************
*************************************************1**************************
*************************************************1**************************
*************************************************1**************************
*************************************************1**************************
*************************************************1**************************
*************************************************1**************************
*************************************************1**************************
*************************************************1**************************
*************************************************1**************************
*************************************************1**************************
*************************************************1**************************
*************************************************1**************************
*************************************************1**************************
*************************************************1**************************
*************************************************1**************************
*************************************************1**************************
*************************************************0**************************
*************************************************1**************************
*************************************************1**************************
*************************************************1**************************
*************************************************1**************************
*************************************************0**************************
*************************************************0**************************
*************************************************1**************************
*************************************************1**************************
*************************************************1**************************
*************************************************1**************************
*************************************************1**************************
*************************************************1**************************
*************************************************1**************************
*************************************************1**************************
*************************************************1**************************
*************************************************1**************************
*************************************************1**************************
*************************************************1**************************
*************************************************1**************************
*************************************************1**************************
*************************************************1**************************
*************************************************1**************************
*************************************************1**************************
*************************************************1**************************
*************************************************1**************************
*************************************************1**************************
*************************************************1**************************
*************************************************1**************************
*************************************************1**************************
*************************************************1**************************
*************************************************1**************************
*************************************************1**************************
*************************************************1**************************
*************************************************1**************************
*************************************************1**************************
*************************************************1**************************
*************************************************1**************************
*************************************************1**************************
*************************************************1**************************
*************************************************1**************************
*************************************************1**************************
*************************************************1**************************
*************************************************1**************************
*************************************************1**************************
*************************************************1**************************
*************************************************0**************************
*************************************************0**************************
*************************************************1**************************
*************************************************1**************************
*************************************************1**************************
*************************************************1**************************
*************************************************1**************************
*************************************************1**************************
*************************************************1**************************
*************************************************1**************************
*************************************************1**************************
*************************************************1**************************
*************************************************1**************************
*************************************************1**************************
*************************************************1**************************
*************************************************1**************************
*************************************************1**************************
*************************************************1**************************
*************************************************0**************************
*************************************************1**************************
*************************************************0**************************
*************************************************1**************************
*************************************************0**************************
*************************************************0**************************
*************************************************0**************************
*************************************************1**************************
*************************************************1**************************
*************************************************1**************************
*************************************************0**************************
*************************************************0**************************
*************************************************1**************************
*************************************************1**************************
*************************************************0**************************
*************************************************1**************************
*************************************************1**************************
*************************************************1**************************
*************************************************0**************************
*************************************************1**************************
*************************************************1**************************
*************************************************0**************************
*************************************************0**************************
*************************************************1**************************
*************************************************1**************************
*************************************************0**************************
*************************************************1**************************
*************************************************0**************************
*************************************************0**************************
*************************************************1**************************
*************************************************1**************************
*************************************************1**************************
*************************************************1**************************
*************************************************0**************************
*************************************************0**************************
*************************************************1**************************
*************************************************1**************************
*************************************************1**************************
*************************************************1**************************
*************************************************0**************************
*************************************************0**************************
*************************************************1**************************
*************************************************0**************************
*************************************************1**************************
*************************************************1**************************
*************************************************1**************************
*************************************************0**************************
*************************************************0**************************
*************************************************0**************************
*************************************************0**************************
*************************************************1**************************
*************************************************1**************************
*************************************************0**************************
*************************************************0**************************
*************************************************0**************************
*************************************************1**************************
*************************************************1**************************
*************************************************0**************************
*************************************************1**************************
*************************************************1**************************
*************************************************0**************************
*************************************************1**************************
*************************************************1**************************
*************************************************0**************************
*************************************************0**************************
*************************************************0**************************
*************************************************1**************************
*************************************************0**************************
*************************************************0**************************
*************************************************1**************************
*************************************************1**************************
*************************************************0**************************
*************************************************0**************************
*************************************************0**************************
*************************************************0**************************
*************************************************0**************************
*************************************************0**************************
*************************************************1**************************
*************************************************0**************************
*************************************************1**************************
*************************************************1**************************
*************************************************0**************************
*************************************************0**************************
*************************************************0**************************
*************************************************0**************************
*************************************************1**************************
*************************************************0**************************
*************************************************0**************************
*************************************************1**************************
*************************************************0**************************
*************************************************0**************************
*************************************************0**************************
*************************************************1**************************
*************************************************1**************************
*************************************************0**************************
*************************************************0**************************
*************************************************1**************************
*************************************************0**************************
*************************************************0**************************
*************************************************0**************************
*************************************************0**************************
*************************************************1**************************
*************************************************0**************************
*************************************************0**************************
*************************************************1**************************
*************************************************1**************************
*************************************************0**************************
*************************************************0**************************
*************************************************1**************************
*************************************************1**************************
*************************************************0**************************
*************************************************0**************************
*************************************************0**************************
*************************************************1**************************
*************************************************0**************************
*************************************************0**************************
*************************************************1**************************
*************************************************0**************************
*************************************************0**************************
*************************************************0**************************
*************************************************0**************************
*************************************************1**************************
*************************************************1**************************
*************************************************0**************************
*************************************************0**************************
*************************************************0**************************
*************************************************0**************************
*************************************************0**************************
*************************************************0**************************
*************************************************1**************************
*************************************************0**************************
*************************************************0**************************
*************************************************0**************************
*************************************************0**************************
*************************************************0**************************
*************************************************0**************************
*************************************************1**************************
*************************************************0**************************
*************************************************0**************************
*************************************************1**************************
*************************************************0**************************
*************************************************0**************************
*************************************************0**************************
*************************************************0**************************
*************************************************0**************************
*************************************************1**************************
*************************************************0**************************
*************************************************0**************************
*************************************************0**************************
*************************************************1**************************
*************************************************0**************************
*************************************************0**************************
*************************************************0**************************
*************************************************0**************************
*************************************************0**************************
*************************************************0**************************
*************************************************0**************************
*************************************************0**************************
*************************************************0**************************
*************************************************0**************************
*************************************************1**************************
*************************************************0**************************
*************************************************0**************************
*************************************************0**************************
*************************************************0**************************
*************************************************0**************************
*************************************************1**************************
*************************************************1**************************
*************************************************0**************************
*************************************************0**************************
*************************************************1**************************
*************************************************0**************************
*************************************************0**************************
*************************************************0**************************
*************************************************0**************************
*************************************************0**************************
*************************************************1**************************
*************************************************0**************************
*************************************************0**************************
*************************************************0**************************
*************************************************1**************************
*************************************************1**************************
*************************************************0**************************
*************************************************0**************************
*************************************************0**************************
*************************************************1**************************
*************************************************0**************************
*************************************************0**************************
*************************************************0**************************
*************************************************0**************************
*************************************************0**************************
*************************************************0**************************
*************************************************0**************************
*************************************************0**************************
*************************************************0**************************
*************************************************0**************************
*************************************************0**************************
*************************************************0**************************
*************************************************0**************************
*************************************************0**************************
*************************************************0**************************
*************************************************0**************************
*************************************************0**************************
*************************************************0**************************
*************************************************0**************************
*************************************************0**************************
*************************************************0**************************
*************************************************0**************************
*************************************************0**************************
*************************************************0**************************
*************************************************0**************************
*************************************************0**************************
*************************************************0**************************
*************************************************0**************************
*************************************************0**************************
*************************************************0**************************
*************************************************0**************************
*************************************************0**************************
*************************************************0**************************
*************************************************1**************************
*************************************************0**************************
*************************************************0**************************
*************************************************0**************************
*************************************************0**************************
*************************************************0**************************
*************************************************0**************************
*************************************************0**************************
*************************************************0**************************
*************************************************0**************************
*************************************************0**************************
*************************************************0**************************
*************************************************1**************************
*************************************************0**************************
*************************************************0**************************
*************************************************0**************************
*************************************************0**************************
*************************************************0**************************
*************************************************0**************************
*************************************************0**************************
*************************************************0**************************
*************************************************0**************************
*************************************************0**************************
*************************************************1**************************
*************************************************0**************************
*************************************************0**************************
*************************************************0**************************
*************************************************0**************************
*************************************************0**************************
*************************************************1**************************
*************************************************0**************************
*************************************************0**************************
*************************************************0**************************
*************************************************0**************************
*************************************************0**************************
*************************************************0**************************
*************************************************0**************************
*************************************************0**************************
*************************************************0**************************
*************************************************0**************************
*************************************************0**************************
*************************************************0**************************
*************************************************0**************************
*************************************************0**************************
*************************************************0**************************
*************************************************0**************************
*************************************************1**************************
*************************************************1**************************
*************************************************1**************************
*************************************************1**************************
*************************************************1**************************
*************************************************1**************************
*************************************************1**************************
*************************************************1**************************
*************************************************1**************************
*************************************************1**************************
*************************************************1**************************
*************************************************1**************************
*************************************************1**************************
*************************************************1**************************
*************************************************1**************************
*************************************************1**************************
*************************************************1**************************
*************************************************1**************************
*************************************************1**************************
*************************************************1**************************
*************************************************1**************************
*************************************************1**************************
*************************************************1**************************
*************************************************1**************************
*************************************************1**************************
*************************************************1**************************
*************************************************1**************************
*************************************************1**************************
*************************************************1**************************
*************************************************1**************************
*************************************************1**************************
*************************************************1**************************
*************************************************1**************************
*************************************************1**************************
*************************************************1**************************
*************************************************1**************************
*************************************************1**************************
*************************************************1**************************
*************************************************1**************************
*************************************************1**************************
*************************************************1**************************
*************************************************1**************************
*************************************************1**************************
*************************************************1**************************
*************************************************1**************************
*************************************************1**************************
*************************************************1**************************
*************************************************1**************************
*************************************************1**************************
*************************************************1**************************
*************************************************1**************************
*************************************************1**************************
*************************************************1**************************
*************************************************1**************************
*************************************************1**************************
*************************************************1**************************
*************************************************1**************************
*************************************************1**************************
*************************************************1**************************
*************************************************1**************************
*************************************************1**************************
*************************************************1**************************
*************************************************1**************************
*************************************************1**************************
*************************************************1**************************
*************************************************1**************************
*************************************************1**************************
*************************************************1**************************
*************************************************1**************************
*************************************************1**************************
*************************************************1**************************
*************************************************1**************************
*************************************************1**************************
*************************************************1**************************
*************************************************1**************************
*************************************************1**************************
*************************************************1**************************
*************************************************1**************************
*************************************************1**************************
*************************************************1**************************
*************************************************1**************************
*************************************************1**************************
*************************************************1**************************
*************************************************1**************************
*************************************************1**************************
*************************************************1**************************
*************************************************1**************************
*************************************************1**************************
*************************************************1**************************
*************************************************1**************************
*************************************************1**************************
*************************************************1**************************
*************************************************1**************************
*************************************************1**************************
*************************************************1**************************
*************************************************1**************************
*************************************************1**************************
*************************************************1**************************
*************************************************1**************************
*************************************************1**************************
*************************************************1**************************
*************************************************0**************************
*************************************************1**************************
*************************************************1**************************
*************************************************1**************************
*************************************************1**************************
*************************************************1**************************
*************************************************1**************************
*************************************************1**************************
*************************************************1**************************
*************************************************1**************************
*************************************************1**************************
*************************************************1**************************
*************************************************1**************************
*************************************************1**************************
*************************************************1**************************
*************************************************1**************************
*************************************************1**************************
*************************************************1**************************
*************************************************1**************************
*************************************************1**************************
*************************************************1**************************
*************************************************1**************************
*************************************************1**************************
*************************************************1**************************
*************************************************1**************************
*************************************************1**************************
*************************************************1**************************
*************************************************1**************************
*************************************************1**************************
*************************************************1**************************
*************************************************1**************************
*************************************************1**************************
*************************************************1**************************
*************************************************1**************************
*************************************************1**************************
*************************************************1**************************
*************************************************1**************************
*************************************************0**************************
*************************************************1**************************
*************************************************1**************************
*************************************************1**************************
*************************************************1**************************
*************************************************1**************************
*************************************************1**************************
*************************************************1**************************
*************************************************1**************************
*************************************************1**************************
*************************************************1**************************
*************************************************1**************************
*************************************************1**************************
*************************************************1**************************
*************************************************1**************************
*************************************************1**************************
*************************************************1**************************
*************************************************0**************************
*************************************************1**************************
*************************************************1**************************
*************************************************1**************************
*************************************************1**************************
*************************************************1**************************
*************************************************0**************************
*************************************************1**************************
*************************************************1**************************
*************************************************1**************************
*************************************************1**************************
*************************************************1**************************
*************************************************1**************************
*************************************************0**************************
*************************************************1**************************
*************************************************1**************************
*************************************************1**************************
*************************************************1**************************
*************************************************1**************************
*************************************************0**************************
*************************************************1**************************
*************************************************1**************************
*************************************************1**************************
*************************************************1**************************
*************************************************1**************************
*************************************************1**************************
*************************************************1**************************
*************************************************1**************************
*************************************************0**************************
*************************************************1**************************
*************************************************1**************************
*************************************************1**************************
*************************************************1**************************
*************************************************1**************************
*************************************************1**************************
*************************************************1**************************
*************************************************1**************************
*************************************************1**************************
*************************************************1**************************
*************************************************1**************************
*************************************************1**************************
*************************************************1**************************
*************************************************1**************************
*************************************************0**************************
*************************************************0**************************
*************************************************0**************************
*************************************************1**************************
*************************************************1**************************
*************************************************0**************************
*************************************************1**************************
*************************************************0**************************
*************************************************1**************************
*************************************************1**************************
*************************************************0**************************
*************************************************1**************************
*************************************************1**************************
*************************************************0**************************
*************************************************1**************************
*************************************************1**************************
*************************************************1**************************
*************************************************1**************************
*************************************************1**************************
*************************************************1**************************
*************************************************1**************************
*************************************************1**************************
*************************************************1**************************
*************************************************0**************************
*************************************************1**************************
*************************************************0**************************
*************************************************1**************************
*************************************************1**************************
*************************************************1**************************
*************************************************1**************************
*************************************************1**************************
*************************************************1**************************
*************************************************1**************************
*************************************************1**************************
*************************************************0**************************
*************************************************0**************************
*************************************************1**************************
*************************************************1**************************
*************************************************0**************************
*************************************************1**************************
*************************************************1**************************
*************************************************1**************************
*************************************************0**************************
*************************************************0**************************
*************************************************1**************************
*************************************************1**************************
*************************************************1**************************
*************************************************1**************************
*************************************************1**************************
*************************************************1**************************
*************************************************1**************************
*************************************************1**************************
*************************************************1**************************
*************************************************0**************************
*************************************************1**************************
*************************************************0**************************
*************************************************1**************************
*************************************************1**************************
*************************************************1**************************
*************************************************0**************************
*************************************************1**************************
*************************************************0**************************
*************************************************1**************************
*************************************************0**************************
*************************************************1**************************
*************************************************0**************************
*************************************************0**************************
*************************************************0**************************
*************************************************1**************************
*************************************************1**************************
*************************************************0**************************
*************************************************1**************************
*************************************************0**************************
*************************************************0**************************
*************************************************0**************************
[...]
*************************************************1**************************
*************************************************1**************************
*************************************************0**************************
*************************************************1**************************
*************************************************1**************************
*************************************************0**************************
*************************************************1**************************
*************************************************1**************************
*************************************************0**************************
*************************************************1**************************
*************************************************1**************************
*************************************************1**************************
*************************************************1**************************
*************************************************1**************************
*************************************************1**************************
*************************************************1**************************
*************************************************0**************************
*************************************************1**************************
*************************************************1**************************
*************************************************1**************************
*************************************************1**************************
*************************************************1**************************
*************************************************1**************************
*************************************************0**************************
*************************************************1**************************
*************************************************0**************************
*************************************************0**************************
*************************************************1**************************
*************************************************1**************************
*************************************************1**************************
*************************************************1**************************
*************************************************1**************************
*************************************************1**************************
*************************************************1**************************
*************************************************1**************************
*************************************************1**************************
*************************************************1**************************
*************************************************1**************************
*************************************************1**************************
*************************************************1**************************
*************************************************1**************************
*************************************************1**************************
*************************************************1**************************
*************************************************0**************************
*************************************************0**************************
*************************************************1**************************
*************************************************0**************************
*************************************************1**************************
*************************************************1**************************
*************************************************0**************************
*************************************************1**************************
*************************************************0**************************
*************************************************1**************************
*************************************************1**************************
*************************************************1**************************
*************************************************1**************************
*************************************************1**************************
*************************************************1**************************
*************************************************1**************************
*************************************************1**************************
*************************************************1**************************
*************************************************1**************************
*************************************************1**************************
*************************************************0**************************
*************************************************1**************************
*************************************************1**************************
*************************************************0**************************
*************************************************0**************************
*************************************************1**************************
*************************************************0**************************
*************************************************1**************************
*************************************************0**************************
*************************************************1**************************
*************************************************1**************************
*************************************************0**************************
*************************************************1**************************
*************************************************0**************************
*************************************************1**************************
*************************************************1**************************
*************************************************0**************************
*************************************************0**************************
*************************************************1**************************
*************************************************0**************************
*************************************************1**************************
*************************************************1**************************
*************************************************1**************************
*************************************************0**************************
*************************************************1**************************
*************************************************1**************************
*************************************************1**************************
*************************************************1**************************
*************************************************0**************************
*************************************************0**************************
*************************************************0**************************
*************************************************0**************************
*************************************************1**************************
*************************************************1**************************
*************************************************0**************************
*************************************************0**************************
*************************************************1**************************
*************************************************0**************************
*************************************************1**************************
*************************************************0**************************
*************************************************1**************************
*************************************************0**************************
*************************************************1**************************
*************************************************1**************************
*************************************************1**************************
*************************************************1**************************
*************************************************0**************************
*************************************************0**************************
*************************************************1**************************
*************************************************1**************************
*************************************************0**************************
*************************************************0**************************
*************************************************1**************************
*************************************************1**************************
*************************************************1**************************
*************************************************1**************************
*************************************************1**************************
*************************************************1**************************
*************************************************0**************************
*************************************************1**************************
*************************************************1**************************
*************************************************0**************************
*************************************************1**************************
*************************************************0**************************
*************************************************1**************************
*************************************************1**************************
*************************************************0**************************
*************************************************1**************************
*************************************************1**************************
*************************************************1**************************
*************************************************0**************************
*************************************************1**************************
*************************************************1**************************
*************************************************1**************************
*************************************************1**************************
*************************************************0**************************
*************************************************0**************************
*************************************************0**************************
*************************************************1**************************
*************************************************0**************************
*************************************************1**************************
*************************************************0**************************
*************************************************1**************************
*************************************************1**************************
*************************************************0**************************
*************************************************1**************************
*************************************************0**************************
*************************************************0**************************
*************************************************1**************************
*************************************************0**************************
*************************************************0**************************
*************************************************0**************************
*************************************************0**************************
*************************************************0**************************
*************************************************1**************************
*************************************************1**************************
*************************************************0**************************
*************************************************1**************************
*************************************************0**************************
*************************************************0**************************
*************************************************0**************************
*************************************************1**************************
*************************************************0**************************
*************************************************1**************************
*************************************************0**************************
*************************************************0**************************
*************************************************1**************************
*************************************************0**************************
*************************************************1**************************
*************************************************1**************************
*************************************************1**************************
*************************************************1**************************
*************************************************1**************************
*************************************************0**************************
*************************************************0**************************
*************************************************1**************************
*************************************************1**************************
*************************************************1**************************
*************************************************0**************************
*************************************************0**************************
*************************************************1**************************
*************************************************0**************************
*************************************************0**************************
*************************************************1**************************
*************************************************1**************************
*************************************************1**************************
*************************************************1**************************
*************************************************1**************************
*************************************************1**************************
*************************************************1**************************
*************************************************1**************************
*************************************************0**************************
*************************************************1**************************
*************************************************1**************************
*************************************************1**************************
*************************************************1**************************
*************************************************0**************************
*************************************************1**************************
*************************************************1**************************
*************************************************1**************************
*************************************************1**************************
*************************************************1**************************
*************************************************1**************************
*************************************************1**************************
*************************************************1**************************
*************************************************1**************************
*************************************************0**************************
*************************************************1**************************
*************************************************1**************************
*************************************************1**************************
*************************************************0**************************
*************************************************1**************************
*************************************************1**************************
*************************************************1**************************
*************************************************1**************************
*************************************************1**************************
*************************************************1**************************
Heartbeat CPU 0 instructions: 20000000 cycles: 33355835 heartbeat IPC: 0.342263 cumulative IPC: 0.342263 (Simulation time: 0 hr 0 min 54 sec) 
Finished CPU 0 instructions: 10000000 cycles: 29217322 cumulative IPC: 0.342263 (Simulation time: 0 hr 0 min 54 sec) 

ChampSim completed all CPUs

Region of Interest Statistics

CPU 0 cumulative IPC: 0.342263 instructions: 10000000 cycles: 29217322
L1D TOTAL     ACCESS:    2763303  HIT:    2313782  MISS:     449521
L1D LOAD      ACCESS:    1826816  HIT:    1574351  MISS:     252465
L1D RFO       ACCESS:     410593  HIT:     407405  MISS:       3188
L1D PREFETCH  ACCESS:     525894  HIT:     332026  MISS:     193868
L1D WRITEBACK ACCESS:          0  HIT:          0  MISS:          0
L1D PREFETCH  REQUESTED:     652897  ISSUED:     640325  USEFUL:      38120  USELESS:     155664
L1D AVERAGE MISS LATENCY: 111.545 cycles
L1I TOTAL     ACCESS:    1773157  HIT:    1739462  MISS:      33695
L1I LOAD      ACCESS:    1773157  HIT:    1739462  MISS:      33695
L1I RFO       ACCESS:          0  HIT:          0  MISS:          0
L1I PREFETCH  ACCESS:          0  HIT:          0  MISS:          0
L1I WRITEBACK ACCESS:          0  HIT:          0  MISS:          0
L1I PREFETCH  REQUESTED:          0  ISSUED:          0  USEFUL:          0  USELESS:          0
L1I AVERAGE MISS LATENCY: 29.7673 cycles
L2C TOTAL     ACCESS:     671794  HIT:     168234  MISS:     503560
L2C LOAD      ACCESS:     256678  HIT:      57892  MISS:     198786
L2C RFO       ACCESS:       3086  HIT:       1857  MISS:       1229
L2C PREFETCH  ACCESS:     403116  HIT:      99624  MISS:     303492
L2C WRITEBACK ACCESS:       8914  HIT:       8861  MISS:         53
L2C PREFETCH  REQUESTED:     371021  ISSUED:     365810  USEFUL:      14348  USELESS:     286635
L2C AVERAGE MISS LATENCY: 126.41 cycles
LLC TOTAL     ACCESS:     507470  HIT:      93860  MISS:     413610
LLC LOAD      ACCESS:     192407  HIT:      64062  MISS:     128345
LLC RFO       ACCESS:       1221  HIT:        556  MISS:        665
LLC PREFETCH  ACCESS:     309880  HIT:      25707  MISS:     284173
LLC WRITEBACK ACCESS:       3962  HIT:       3535  MISS:        427
LLC PREFETCH  REQUESTED:          0  ISSUED:          0  USEFUL:        848  USELESS:     280213
LLC AVERAGE MISS LATENCY: 113.045 cycles
Major fault: 0 Minor fault: 10726

OPTgen accesses: 6482
OPTgen hits: 4273
OPTgen hit rate: 65.921



DRAM Statistics
 CHANNEL 0
 RQ ROW_BUFFER_HIT:     296722  ROW_BUFFER_MISS:     116461
 DBUS_CONGESTED:     162368
 WQ ROW_BUFFER_HIT:        279  ROW_BUFFER_MISS:       1861  FULL:          0

 AVG_CONGESTED_CYCLE: 5

CPU 0 Branch Prediction Accuracy: 94.8575% MPKI: 13.5308 Average ROB Occupancy at Mispredict: 35.3029

Branch types
NOT_BRANCH: 7368471 73.6847%
BRANCH_DIRECT_JUMP: 21213 0.21213%
BRANCH_INDIRECT: 2896 0.02896%
BRANCH_CONDITIONAL: 2376059 23.7606%
BRANCH_DIRECT_CALL: 62935 0.62935%
BRANCH_INDIRECT_CALL: 52560 0.5256%
BRANCH_RETURN: 115500 1.155%
BRANCH_OTHER: 0 0%

