
*** ChampSim Multicore Out-of-Order Simulator ***

Warmup Instructions: 10000000
Simulation Instructions: 10000000
Number of CPUs: 1
LLC sets: 2048
LLC ways: 16
Off-chip DRAM Size: 4096 MB Channels: 1 Width: 64-bit Data Rate: 3200 MT/s

CPU 0 runs ../traces//623.xalancbmk_s-10B.champsimtrace.xz
CPU 0 Bimodal branch predictor
Initialize Hawkeye state
*****************************megha********************5 11**************************
*****************************megha********************5 11**************************
*****************************megha********************5 11**************************
*****************************megha********************5 11**************************
*****************************megha********************5 11**************************
*****************************megha********************5 11**************************
*****************************megha********************5 11**************************
*****************************megha********************5 11**************************
*****************************megha********************5 11**************************
*****************************megha********************5 11**************************
*****************************megha********************5 11**************************
*****************************megha********************5 11**************************
*****************************megha********************5 11**************************
*****************************megha********************5 11**************************
*****************************megha********************5 11**************************
*****************************megha********************5 11**************************
*****************************megha********************5 11**************************
*****************************megha********************5 11**************************
*****************************megha********************5 11**************************
*****************************megha********************5 11**************************
*****************************megha********************5 11**************************
*****************************megha********************5 11**************************
*****************************megha********************5 11**************************
*****************************megha********************5 11**************************
*****************************megha********************5 11**************************
*****************************megha********************5 11**************************
*****************************megha********************5 11**************************
*****************************megha********************5 11**************************
*****************************megha********************5 11**************************
*****************************megha********************5 11**************************
*****************************megha********************5 11**************************
*****************************megha********************5 11**************************
*****************************megha********************5 11**************************
*****************************megha********************5 11**************************
*****************************megha********************5 11**************************
*****************************megha********************5 11**************************
*****************************megha********************5 11**************************
*****************************megha********************5 11**************************
*****************************megha********************5 11**************************
*****************************megha********************5 11**************************
*****************************megha********************5 11**************************
*****************************megha********************5 11**************************
*****************************megha********************5 11**************************
*****************************megha********************5 11**************************
*****************************megha********************5 11**************************
*****************************megha********************5 11**************************
*****************************megha********************5 11**************************
*****************************megha********************5 11**************************
*****************************megha********************5 11**************************
*****************************megha********************5 11**************************
*****************************megha********************5 11**************************
*****************************megha********************5 11**************************
*****************************megha********************5 11**************************
*****************************megha********************5 11**************************
*****************************megha********************5 11**************************
*****************************megha********************5 11**************************
*****************************megha********************5 11**************************
*****************************megha********************5 11**************************
*****************************megha********************5 11**************************
*****************************megha********************5 11**************************
*****************************megha********************5 11**************************
*****************************megha********************5 11**************************
*****************************megha********************5 11**************************
*****************************megha********************5 11**************************
*****************************megha********************5 11**************************
*****************************megha********************5 11**************************
*****************************megha********************5 11**************************
*****************************megha********************5 11**************************
*****************************megha********************5 11**************************
*****************************megha********************5 11**************************
*****************************megha********************5 11**************************
*****************************megha********************5 11**************************
*****************************megha********************5 11**************************
*****************************megha********************5 11**************************
*****************************megha********************5 11**************************
*****************************megha********************5 11**************************
*****************************megha********************5 11**************************
*****************************megha********************5 11**************************
*****************************megha********************5 11**************************
*****************************megha********************5 11**************************
*****************************megha********************5 11**************************
*****************************megha********************5 11**************************
*****************************megha********************5 11**************************
*****************************megha********************5 11**************************
*****************************megha********************5 11**************************
*****************************megha********************5 11**************************
*****************************megha********************5 11**************************
*****************************megha********************5 11**************************
*****************************megha********************5 11**************************
*****************************megha********************5 11**************************
*****************************megha********************5 11**************************
*****************************megha********************5 11**************************
*****************************megha********************5 11**************************
*****************************megha********************5 11**************************
*****************************megha********************5 11**************************
*****************************megha********************5 11**************************
*****************************megha********************5 11**************************
*****************************megha********************5 11**************************
*****************************megha********************5 11**************************
*****************************megha********************5 11**************************
*****************************megha********************5 11**************************
*****************************megha********************5 11**************************
*****************************megha********************5 11**************************
*****************************megha********************5 11**************************
*****************************megha********************5 11**************************
*****************************megha********************5 11**************************
*****************************megha********************5 11**************************
*****************************megha********************5 11**************************
*****************************megha********************5 11**************************
*****************************megha********************5 11**************************
*****************************megha********************5 11**************************
*****************************megha********************5 11**************************
*****************************megha********************5 11**************************
*****************************megha********************5 11**************************
*****************************megha********************5 11**************************
*****************************megha********************5 11**************************
*****************************megha********************5 11**************************
*****************************megha********************5 11**************************
*****************************megha********************5 11**************************
*****************************megha********************5 11**************************
*****************************megha********************5 11**************************
*****************************megha********************5 11**************************
*****************************megha********************5 11**************************
*****************************megha********************5 11**************************
*****************************megha********************5 11**************************
*****************************megha********************5 11**************************
*****************************megha********************5 11**************************
*****************************megha********************5 11**************************
*****************************megha********************5 11**************************
*****************************megha********************5 11**************************
*****************************megha********************5 11**************************
*****************************megha********************5 11**************************
*****************************megha********************5 11**************************
*****************************megha********************5 11**************************
*****************************megha********************5 11**************************
*****************************megha********************5 11**************************
*****************************megha********************5 11**************************
*****************************megha********************5 11**************************
*****************************megha********************5 11**************************
*****************************megha********************5 11**************************
*****************************megha********************5 11**************************
*****************************megha********************5 11**************************
*****************************megha********************5 11**************************
*****************************megha********************5 11**************************
*****************************megha********************5 11**************************
*****************************megha********************5 11**************************
*****************************megha********************5 11**************************
*****************************megha********************5 11**************************
*****************************megha********************5 11**************************
*****************************megha********************5 11**************************
*****************************megha********************5 11**************************
*****************************megha********************5 11**************************
*****************************megha********************5 11**************************
*****************************megha********************5 11**************************
*****************************megha********************5 11**************************
*****************************megha********************5 11**************************
*****************************megha********************5 11**************************
*****************************megha********************5 11**************************
*****************************megha********************5 11**************************
*****************************megha********************5 11**************************
*****************************megha********************5 11**************************
*****************************megha********************5 11**************************
*****************************megha********************5 11**************************
*****************************megha********************5 11**************************
*****************************megha********************5 11**************************
*****************************megha********************5 11**************************
*****************************megha********************5 11**************************
*****************************megha********************5 11**************************
*****************************megha********************5 11**************************
*****************************megha********************5 11**************************
*****************************megha********************5 11**************************
*****************************megha********************6 11**************************
*****************************megha********************5 11**************************
*****************************megha********************5 11**************************
*****************************megha********************5 11**************************
*****************************megha********************5 11**************************
*****************************megha********************5 11**************************
*****************************megha********************5 11**************************
*****************************megha********************5 11**************************
*****************************megha********************5 11**************************
*****************************megha********************5 11**************************
*****************************megha********************5 11**************************
*****************************megha********************5 11**************************
*****************************megha********************5 11**************************
*****************************megha********************5 11**************************
*****************************megha********************5 11**************************
*****************************megha********************5 11**************************
*****************************megha********************5 11**************************
*****************************megha********************5 11**************************
*****************************megha********************5 11**************************
*****************************megha********************5 11**************************
*****************************megha********************5 11**************************
*****************************megha********************5 11**************************
*****************************megha********************5 11**************************
*****************************megha********************5 11**************************
*****************************megha********************5 11**************************
*****************************megha********************5 11**************************
*****************************megha********************5 11**************************
*****************************megha********************6 11**************************
*****************************megha********************5 11**************************
*****************************megha********************5 11**************************
*****************************megha********************5 11**************************
*****************************megha********************5 11**************************
*****************************megha********************5 11**************************
*****************************megha********************5 11**************************
*****************************megha********************5 11**************************
*****************************megha********************5 11**************************
*****************************megha********************5 11**************************
*****************************megha********************5 11**************************
*****************************megha********************5 11**************************
*****************************megha********************5 11**************************
*****************************megha********************5 11**************************
*****************************megha********************5 11**************************
*****************************megha********************5 11**************************
*****************************megha********************5 11**************************
*****************************megha********************5 11**************************
*****************************megha********************5 11**************************
*****************************megha********************5 11**************************
*****************************megha********************5 11**************************
*****************************megha********************5 11**************************
*****************************megha********************5 11**************************
*****************************megha********************5 11**************************
*****************************megha********************5 11**************************
*****************************megha********************5 11**************************
*****************************megha********************5 11**************************
*****************************megha********************5 11**************************
*****************************megha********************5 11**************************
*****************************megha********************5 11**************************
*****************************megha********************5 11**************************
*****************************megha********************5 11**************************
*****************************megha********************5 11**************************
*****************************megha********************5 11**************************
*****************************megha********************5 11**************************
*****************************megha********************5 11**************************
*****************************megha********************5 11**************************
*****************************megha********************5 11**************************
*****************************megha********************5 11**************************
*****************************megha********************5 11**************************
*****************************megha********************5 11**************************
*****************************megha********************5 11**************************
*****************************megha********************5 11**************************
*****************************megha********************5 11**************************
*****************************megha********************5 11**************************
*****************************megha********************5 11**************************
*****************************megha********************5 11**************************
*****************************megha********************5 11**************************
*****************************megha********************5 11**************************
*****************************megha********************5 11**************************
*****************************megha********************5 11**************************
*****************************megha********************5 11**************************
*****************************megha********************5 11**************************
*****************************megha********************5 11**************************
*****************************megha********************5 11**************************
*****************************megha********************5 11**************************
*****************************megha********************5 11**************************
*****************************megha********************5 11**************************
*****************************megha********************5 11**************************
*****************************megha********************5 11**************************
*****************************megha********************5 11**************************
*****************************megha********************5 11**************************
*****************************megha********************5 11**************************
*****************************megha********************5 11**************************
*****************************megha********************5 11**************************
*****************************megha********************5 11**************************
*****************************megha********************5 11**************************
*****************************megha********************5 11**************************
*****************************megha********************5 11**************************
*****************************megha********************5 11**************************
*****************************megha********************5 11**************************
*****************************megha********************5 11**************************
*****************************megha********************5 11**************************
*****************************megha********************5 11**************************
*****************************megha********************5 11**************************
*****************************megha********************5 11**************************
*****************************megha********************5 11**************************
*****************************megha********************5 11**************************
*****************************megha********************5 11**************************
*****************************megha********************5 11**************************
*****************************megha********************5 11**************************
*****************************megha********************5 11**************************
*****************************megha********************5 11**************************
*****************************megha********************5 11**************************
*****************************megha********************5 11**************************
*****************************megha********************5 11**************************
*****************************megha********************5 11**************************
*****************************megha********************5 11**************************
*****************************megha********************5 11**************************
*****************************megha********************5 11**************************
*****************************megha********************5 11**************************
*****************************megha********************5 11**************************
*****************************megha********************5 11**************************
*****************************megha********************5 11**************************
*****************************megha********************5 11**************************
*****************************megha********************5 11**************************
*****************************megha********************5 11**************************
*****************************megha********************5 11**************************
*****************************megha********************5 11**************************
*****************************megha********************5 11**************************
*****************************megha********************5 11**************************
*****************************megha********************5 11**************************
*****************************megha********************5 11**************************
*****************************megha********************5 11**************************
*****************************megha********************5 11**************************
*****************************megha********************5 11**************************
*****************************megha********************5 11**************************
*****************************megha********************5 11**************************
*****************************megha********************5 11**************************
*****************************megha********************5 11**************************
*****************************megha********************5 11**************************
*****************************megha********************5 11**************************
*****************************megha********************5 11**************************
*****************************megha********************5 11**************************
*****************************megha********************5 11**************************
*****************************megha********************5 11**************************
*****************************megha********************5 11**************************
*****************************megha********************5 11**************************
*****************************megha********************5 11**************************
*****************************megha********************5 11**************************
*****************************megha********************5 11**************************
*****************************megha********************5 11**************************
*****************************megha********************5 11**************************
*****************************megha********************3 00**************************
*****************************megha********************5 11**************************
*****************************megha********************5 11**************************
*****************************megha********************5 11**************************
*****************************megha********************3 00**************************
*****************************megha********************5 11**************************
*****************************megha********************5 11**************************
*****************************megha********************5 11**************************
*****************************megha********************5 11**************************
*****************************megha********************6 11**************************
*****************************megha********************6 11**************************
*****************************megha********************5 11**************************
*****************************megha********************6 11**************************
*****************************megha********************6 11**************************
*****************************megha********************5 11**************************
*****************************megha********************6 11**************************
*****************************megha********************6 11**************************
*****************************megha********************6 11**************************
*****************************megha********************6 11**************************
*****************************megha********************6 11**************************
*****************************megha********************6 11**************************
*****************************megha********************5 11**************************
*****************************megha********************5 11**************************
*****************************megha********************6 11**************************
*****************************megha********************6 11**************************
*****************************megha********************6 11**************************
*****************************megha********************6 11**************************
*****************************megha********************6 11**************************
*****************************megha********************4 11**************************
*****************************megha********************6 11**************************
*****************************megha********************5 11**************************
*****************************megha********************6 11**************************
*****************************megha********************6 11**************************
*****************************megha********************4 11**************************
*****************************megha********************5 11**************************
*****************************megha********************6 11**************************
*****************************megha********************5 11**************************
*****************************megha********************6 11**************************
*****************************megha********************5 11**************************
*****************************megha********************5 11**************************
*****************************megha********************5 11**************************
*****************************megha********************5 11**************************
*****************************megha********************5 11**************************
*****************************megha********************5 11**************************
*****************************megha********************5 11**************************
*****************************megha********************5 11**************************
*****************************megha********************5 11**************************
*****************************megha********************5 11**************************
*****************************megha********************5 11**************************
*****************************megha********************5 11**************************
*****************************megha********************5 11**************************
*****************************megha********************5 11**************************
*****************************megha********************5 11**************************
*****************************megha********************6 11**************************
*****************************megha********************5 11**************************
*****************************megha********************5 11**************************
*****************************megha********************5 11**************************
*****************************megha********************5 11**************************
*****************************megha********************5 11**************************
*****************************megha********************5 11**************************
*****************************megha********************5 11**************************
*****************************megha********************5 11**************************
*****************************megha********************5 11**************************
*****************************megha********************5 11**************************
*****************************megha********************5 11**************************
*****************************megha********************5 11**************************
*****************************megha********************6 11**************************
*****************************megha********************7 11**************************
*****************************megha********************5 11**************************
*****************************megha********************6 11**************************
*****************************megha********************7 11**************************
*****************************megha********************6 11**************************
*****************************megha********************7 11**************************
*****************************megha********************7 11**************************
*****************************megha********************7 11**************************
*****************************megha********************5 11**************************
*****************************megha********************7 11**************************
*****************************megha********************7 11**************************
*****************************megha********************6 11**************************
*****************************megha********************7 11**************************
*****************************megha********************6 11**************************
*****************************megha********************5 11**************************
*****************************megha********************7 11**************************
*****************************megha********************5 11**************************
*****************************megha********************6 11**************************
*****************************megha********************7 11**************************
*****************************megha********************5 11**************************
*****************************megha********************6 11**************************
*****************************megha********************5 11**************************
*****************************megha********************5 11**************************
*****************************megha********************6 11**************************
*****************************megha********************7 11**************************
*****************************megha********************6 11**************************
*****************************megha********************6 11**************************
*****************************megha********************6 11**************************
*****************************megha********************6 11**************************
*****************************megha********************6 11**************************
*****************************megha********************6 11**************************
*****************************megha********************6 11**************************
*****************************megha********************5 11**************************
*****************************megha********************6 11**************************
*****************************megha********************5 11**************************
*****************************megha********************6 11**************************
*****************************megha********************6 11**************************
*****************************megha********************6 11**************************
*****************************megha********************6 11**************************
*****************************megha********************5 11**************************
*****************************megha********************7 11**************************
*****************************megha********************5 11**************************
*****************************megha********************6 11**************************
*****************************megha********************5 11**************************
*****************************megha********************6 11**************************
*****************************megha********************5 11**************************
*****************************megha********************5 11**************************
*****************************megha********************6 11**************************
*****************************megha********************5 11**************************
*****************************megha********************5 11**************************
*****************************megha********************6 11**************************
*****************************megha********************6 11**************************
*****************************megha********************3 00**************************
*****************************megha********************6 11**************************
*****************************megha********************5 11**************************
*****************************megha********************5 11**************************
*****************************megha********************5 11**************************
*****************************megha********************5 11**************************
*****************************megha********************3 00**************************
*****************************megha********************3 00**************************
*****************************megha********************5 11**************************
*****************************megha********************5 11**************************
*****************************megha********************5 11**************************
*****************************megha********************5 11**************************
*****************************megha********************5 11**************************
*****************************megha********************5 11**************************
*****************************megha********************5 11**************************
*****************************megha********************5 11**************************
*****************************megha********************5 11**************************
*****************************megha********************5 11**************************
*****************************megha********************5 11**************************
*****************************megha********************5 11**************************
*****************************megha********************5 11**************************
*****************************megha********************5 11**************************
*****************************megha********************5 11**************************
*****************************megha********************5 11**************************
*****************************megha********************5 11**************************
*****************************megha********************5 11**************************
*****************************megha********************5 11**************************
*****************************megha********************7 11**************************
*****************************megha********************5 11**************************
*****************************megha********************5 11**************************
*****************************megha********************5 11**************************
*****************************megha********************5 11**************************
*****************************megha********************5 11**************************
*****************************megha********************5 11**************************
*****************************megha********************5 11**************************
*****************************megha********************5 11**************************
*****************************megha********************5 11**************************
*****************************megha********************5 11**************************
*****************************megha********************7 11**************************
*****************************megha********************5 11**************************
*****************************megha********************5 11**************************
*****************************megha********************5 11**************************
*****************************megha********************5 11**************************
*****************************megha********************5 11**************************
*****************************megha********************5 11**************************
*****************************megha********************5 11**************************
*****************************megha********************3 00**************************
*****************************megha********************5 11**************************
*****************************megha********************5 11**************************
*****************************megha********************5 11**************************
*****************************megha********************5 11**************************
*****************************megha********************5 11**************************
*****************************megha********************5 11**************************
*****************************megha********************5 11**************************
*****************************megha********************6 11**************************
*****************************megha********************5 11**************************
*****************************megha********************5 11**************************
*****************************megha********************5 11**************************
*****************************megha********************5 11**************************
*****************************megha********************5 11**************************
*****************************megha********************5 11**************************
*****************************megha********************5 11**************************
*****************************megha********************5 11**************************
*****************************megha********************5 11**************************
*****************************megha********************5 11**************************
*****************************megha********************3 00**************************
*****************************megha********************5 11**************************
*****************************megha********************3 00**************************
*****************************megha********************3 00**************************
*****************************megha********************5 11**************************
*****************************megha********************5 11**************************
*****************************megha********************5 11**************************
*****************************megha********************5 11**************************
*****************************megha********************3 00**************************
*****************************megha********************3 00**************************
*****************************megha********************5 11**************************
*****************************megha********************5 11**************************
*****************************megha********************3 00**************************
*****************************megha********************5 11**************************
*****************************megha********************5 11**************************
*****************************megha********************5 11**************************
*****************************megha********************5 11**************************
*****************************megha********************5 11**************************
*****************************megha********************5 11**************************
*****************************megha********************5 11**************************
*****************************megha********************3 00**************************
*****************************megha********************5 11**************************
*****************************megha********************6 11**************************
*****************************megha********************3 00**************************
*****************************megha********************5 11**************************
*****************************megha********************3 00**************************
*****************************megha********************5 11**************************
*****************************megha********************5 11**************************
*****************************megha********************5 11**************************
*****************************megha********************5 11**************************
*****************************megha********************5 11**************************
*****************************megha********************3 00**************************
*****************************megha********************3 00**************************
*****************************megha********************5 11**************************
*****************************megha********************5 11**************************
*****************************megha********************5 11**************************
*****************************megha********************5 11**************************
*****************************megha********************3 00**************************
*****************************megha********************5 11**************************
*****************************megha********************5 11**************************
*****************************megha********************5 11**************************
*****************************megha********************5 11**************************
*****************************megha********************5 11**************************
*****************************megha********************3 00**************************
*****************************megha********************3 00**************************
*****************************megha********************3 00**************************
*****************************megha********************3 00**************************
*****************************megha********************5 11**************************
*****************************megha********************5 11**************************
*****************************megha********************3 00**************************
*****************************megha********************3 00**************************
*****************************megha********************3 00**************************
*****************************megha********************5 11**************************
*****************************megha********************5 11**************************
*****************************megha********************5 11**************************
*****************************megha********************5 11**************************
*****************************megha********************5 11**************************
*****************************megha********************3 00**************************
*****************************megha********************5 11**************************
*****************************megha********************5 11**************************
*****************************megha********************3 00**************************
*****************************megha********************3 00**************************
*****************************megha********************3 00**************************
*****************************megha********************5 11**************************
*****************************megha********************3 00**************************
*****************************megha********************3 00**************************
*****************************megha********************5 11**************************
*****************************megha********************5 11**************************
*****************************megha********************3 00**************************
*****************************megha********************5 11**************************
*****************************megha********************3 00**************************
*****************************megha********************3 00**************************
*****************************megha********************5 11**************************
*****************************megha********************3 00**************************
*****************************megha********************5 11**************************
*****************************megha********************3 00**************************
*****************************megha********************5 11**************************
*****************************megha********************5 11**************************
*****************************megha********************3 00**************************
*****************************megha********************5 11**************************
*****************************megha********************3 00**************************
*****************************megha********************5 11**************************
*****************************megha********************5 11**************************
*****************************megha********************5 10**************************
*****************************megha********************3 00**************************
*****************************megha********************3 00**************************
*****************************megha********************5 11**************************
*****************************megha********************5 11**************************
*****************************megha********************3 00**************************
*****************************megha********************3 00**************************
*****************************megha********************5 11**************************
*****************************megha********************5 11**************************
*****************************megha********************3 00**************************
*****************************megha********************3 00**************************
*****************************megha********************5 11**************************
*****************************megha********************3 00**************************
*****************************megha********************3 00**************************
*****************************megha********************3 00**************************
*****************************megha********************3 00**************************
*****************************megha********************5 11**************************
*****************************megha********************3 00**************************
*****************************megha********************3 00**************************
*****************************megha********************5 11**************************
*****************************megha********************5 11**************************
*****************************megha********************3 00**************************
*****************************megha********************3 00**************************
*****************************megha********************5 11**************************
*****************************megha********************5 11**************************
*****************************megha********************3 00**************************
*****************************megha********************3 00**************************
*****************************megha********************5 11**************************
*****************************megha********************5 11**************************
*****************************megha********************3 00**************************
*****************************megha********************3 00**************************
*****************************megha********************5 11**************************
*****************************megha********************3 00**************************
*****************************megha********************3 00**************************
*****************************megha********************3 00**************************
*****************************megha********************3 00**************************
*****************************megha********************5 11**************************
*****************************megha********************5 11**************************
*****************************megha********************3 00**************************
*****************************megha********************3 00**************************
*****************************megha********************3 00**************************
*****************************megha********************3 00**************************
*****************************megha********************3 00**************************
*****************************megha********************5 11**************************
*****************************megha********************3 00**************************
*****************************megha********************3 00**************************
*****************************megha********************3 00**************************
*****************************megha********************3 00**************************
*****************************megha********************3 00**************************
*****************************megha********************3 00**************************
*****************************megha********************5 11**************************
*****************************megha********************3 00**************************
*****************************megha********************3 00**************************
*****************************megha********************4 10**************************
*****************************megha********************3 00**************************
*****************************megha********************3 00**************************
*****************************megha********************3 00**************************
*****************************megha********************3 00**************************
*****************************megha********************3 00**************************
*****************************megha********************3 00**************************
*****************************megha********************3 00**************************
*****************************megha********************3 00**************************
*****************************megha********************3 00**************************
*****************************megha********************5 11**************************
*****************************megha********************3 00**************************
*****************************megha********************3 00**************************
*****************************megha********************3 00**************************
*****************************megha********************3 00**************************
*****************************megha********************3 00**************************
*****************************megha********************3 00**************************
*****************************megha********************3 00**************************
*****************************megha********************3 00**************************
*****************************megha********************3 00**************************
*****************************megha********************3 00**************************
*****************************megha********************5 11**************************
*****************************megha********************3 00**************************
*****************************megha********************5 11**************************
*****************************megha********************3 00**************************
*****************************megha********************3 00**************************
*****************************megha********************3 00**************************
*****************************megha********************6 11**************************
*****************************megha********************5 11**************************
*****************************megha********************3 00**************************
*****************************megha********************3 00**************************
*****************************megha********************5 11**************************
*****************************megha********************3 00**************************
*****************************megha********************3 00**************************
*****************************megha********************3 00**************************
*****************************megha********************3 00**************************
*****************************megha********************3 00**************************
*****************************megha********************5 11**************************
*****************************megha********************3 00**************************
*****************************megha********************3 00**************************
*****************************megha********************3 00**************************
*****************************megha********************5 11**************************
*****************************megha********************5 11**************************
*****************************megha********************3 00**************************
*****************************megha********************3 00**************************
*****************************megha********************3 00**************************
*****************************megha********************5 11**************************
*****************************megha********************5 11**************************
*****************************megha********************3 00**************************
*****************************megha********************3 00**************************
*****************************megha********************3 00**************************
*****************************megha********************5 11**************************
*****************************megha********************3 00**************************
*****************************megha********************3 00**************************
*****************************megha********************3 00**************************
*****************************megha********************3 00**************************
*****************************megha********************3 00**************************
*****************************megha********************3 00**************************
*****************************megha********************3 00**************************
*****************************megha********************3 00**************************
*****************************megha********************3 00**************************
*****************************megha********************3 00**************************
*****************************megha********************3 00**************************
*****************************megha********************3 00**************************
*****************************megha********************3 00**************************
*****************************megha********************3 00**************************
*****************************megha********************3 00**************************
*****************************megha********************3 00**************************
*****************************megha********************3 00**************************
*****************************megha********************3 00**************************
*****************************megha********************3 00**************************
*****************************megha********************3 00**************************
*****************************megha********************3 00**************************
*****************************megha********************3 00**************************
*****************************megha********************3 00**************************
*****************************megha********************3 00**************************
*****************************megha********************3 00**************************
*****************************megha********************3 00**************************
*****************************megha********************3 00**************************
*****************************megha********************3 00**************************
*****************************megha********************5 11**************************
*****************************megha********************3 00**************************
*****************************megha********************5 11**************************
*****************************megha********************3 00**************************
*****************************megha********************3 00**************************
*****************************megha********************3 00**************************
*****************************megha********************3 00**************************
*****************************megha********************3 00**************************
*****************************megha********************3 00**************************
*****************************megha********************3 00**************************
*****************************megha********************3 00**************************
*****************************megha********************3 00**************************
*****************************megha********************5 11**************************
*****************************megha********************3 00**************************
*****************************megha********************3 00**************************
*****************************megha********************3 00**************************
*****************************megha********************3 00**************************
*****************************megha********************3 00**************************
*****************************megha********************3 00**************************
*****************************megha********************3 00**************************
*****************************megha********************3 00**************************
*****************************megha********************3 00**************************
*****************************megha********************3 00**************************
*****************************megha********************5 11**************************
*****************************megha********************3 00**************************
*****************************megha********************3 00**************************
*****************************megha********************3 00**************************
*****************************megha********************3 00**************************
*****************************megha********************3 00**************************
*****************************megha********************5 11**************************
*****************************megha********************3 00**************************
*****************************megha********************3 00**************************
*****************************megha********************3 00**************************
*****************************megha********************3 00**************************
*****************************megha********************3 00**************************
*****************************megha********************3 00**************************
*****************************megha********************3 00**************************
*****************************megha********************3 00**************************
*****************************megha********************3 00**************************
*****************************megha********************3 00**************************
*****************************megha********************3 00**************************
*****************************megha********************3 00**************************
*****************************megha********************3 00**************************
*****************************megha********************3 00**************************
*****************************megha********************3 00**************************
*****************************megha********************3 00**************************
*****************************megha********************6 11**************************
*****************************megha********************6 11**************************
*****************************megha********************6 11**************************
*****************************megha********************6 11**************************
*****************************megha********************6 11**************************
*****************************megha********************6 11**************************
*****************************megha********************6 11**************************
*****************************megha********************6 11**************************
*****************************megha********************6 11**************************
*****************************megha********************6 11**************************
*****************************megha********************6 11**************************
*****************************megha********************6 11**************************
*****************************megha********************6 11**************************
*****************************megha********************6 11**************************
*****************************megha********************6 11**************************
*****************************megha********************6 11**************************
*****************************megha********************6 11**************************
*****************************megha********************6 11**************************
*****************************megha********************6 11**************************
*****************************megha********************6 11**************************
*****************************megha********************6 11**************************
*****************************megha********************6 11**************************
*****************************megha********************6 11**************************
*****************************megha********************6 11**************************
*****************************megha********************6 11**************************
*****************************megha********************6 11**************************
*****************************megha********************6 11**************************
*****************************megha********************6 11**************************
*****************************megha********************6 11**************************
*****************************megha********************6 11**************************
*****************************megha********************6 11**************************
*****************************megha********************6 11**************************
*****************************megha********************6 11**************************
*****************************megha********************6 11**************************
*****************************megha********************6 11**************************
*****************************megha********************6 11**************************
*****************************megha********************6 11**************************
*****************************megha********************6 11**************************
*****************************megha********************6 11**************************
*****************************megha********************6 11**************************
*****************************megha********************6 11**************************
*****************************megha********************6 11**************************
*****************************megha********************6 11**************************
*****************************megha********************6 11**************************
*****************************megha********************6 11**************************
*****************************megha********************6 11**************************
*****************************megha********************6 11**************************
*****************************megha********************6 11**************************
*****************************megha********************6 11**************************
*****************************megha********************6 11**************************
*****************************megha********************6 11**************************
*****************************megha********************6 11**************************
*****************************megha********************6 11**************************
*****************************megha********************6 11**************************
*****************************megha********************6 11**************************
*****************************megha********************6 11**************************
*****************************megha********************6 11**************************
*****************************megha********************6 11**************************
*****************************megha********************3 00**************************
*****************************megha********************6 11**************************
*****************************megha********************6 11**************************
*****************************megha********************6 11**************************
*****************************megha********************6 11**************************
*****************************megha********************6 11**************************
*****************************megha********************6 11**************************
*****************************megha********************6 11**************************
*****************************megha********************6 11**************************
*****************************megha********************6 11**************************
*****************************megha********************6 11**************************
*****************************megha********************6 11**************************
*****************************megha********************6 11**************************
*****************************megha********************6 11**************************
*****************************megha********************6 11**************************
*****************************megha********************6 11**************************
*****************************megha********************6 11**************************
*****************************megha********************6 11**************************
*****************************megha********************6 11**************************
*****************************megha********************6 11**************************
*****************************megha********************6 11**************************
*****************************megha********************6 11**************************
*****************************megha********************6 11**************************
*****************************megha********************6 11**************************
*****************************megha********************6 11**************************
*****************************megha********************6 11**************************
*****************************megha********************6 11**************************
*****************************megha********************6 11**************************
*****************************megha********************6 11**************************
*****************************megha********************6 11**************************
*****************************megha********************6 11**************************
*****************************megha********************6 11**************************
*****************************megha********************6 11**************************
*****************************megha********************6 11**************************
*****************************megha********************6 11**************************
*****************************megha********************6 11**************************
*****************************megha********************6 11**************************
*****************************megha********************6 11**************************
*****************************megha********************6 11**************************
*****************************megha********************6 11**************************
*****************************megha********************6 11**************************
*****************************megha********************6 11**************************
*****************************megha********************6 11**************************
*****************************megha********************4 10**************************
*****************************megha********************6 11**************************
*****************************megha********************6 11**************************
*****************************megha********************6 11**************************
*****************************megha********************6 11**************************
*****************************megha********************6 11**************************
*****************************megha********************6 11**************************
*****************************megha********************6 11**************************
*****************************megha********************6 11**************************
*****************************megha********************6 11**************************
*****************************megha********************6 11**************************
*****************************megha********************6 11**************************
*****************************megha********************6 11**************************
*****************************megha********************6 11**************************
*****************************megha********************6 11**************************
*****************************megha********************6 11**************************
*****************************megha********************6 11**************************
*****************************megha********************6 11**************************
*****************************megha********************6 11**************************
*****************************megha********************6 11**************************
*****************************megha********************6 11**************************
*****************************megha********************6 11**************************
*****************************megha********************6 11**************************
*****************************megha********************6 11**************************
*****************************megha********************6 11**************************
*****************************megha********************6 11**************************
*****************************megha********************6 11**************************
*****************************megha********************6 11**************************
*****************************megha********************6 11**************************
*****************************megha********************6 11**************************
*****************************megha********************6 11**************************
*****************************megha********************6 11**************************
*****************************megha********************6 11**************************
*****************************megha********************6 11**************************
*****************************megha********************6 11**************************
*****************************megha********************6 11**************************
*****************************megha********************6 11**************************
*****************************megha********************4 10**************************
*****************************megha********************6 11**************************
*****************************megha********************6 11**************************
*****************************megha********************6 11**************************
*****************************megha********************6 11**************************
*****************************megha********************6 11**************************
*****************************megha********************6 11**************************
*****************************megha********************6 11**************************
*****************************megha********************6 11**************************
*****************************megha********************6 11**************************
*****************************megha********************6 11**************************
*****************************megha********************6 11**************************
*****************************megha********************6 11**************************
*****************************megha********************6 11**************************
*****************************megha********************6 11**************************
*****************************megha********************6 11**************************
*****************************megha********************6 11**************************
*****************************megha********************6 11**************************
*****************************megha********************6 11**************************
*****************************megha********************6 11**************************
*****************************megha********************6 11**************************
*****************************megha********************6 11**************************
*****************************megha********************4 10**************************
*****************************megha********************4 10**************************
*****************************megha********************6 11**************************
*****************************megha********************6 11**************************
*****************************megha********************5 11**************************
*****************************megha********************6 11**************************
*****************************megha********************6 11**************************
*****************************megha********************6 11**************************
*****************************megha********************4 10**************************
*****************************megha********************6 11**************************
[...]
*****************************megha********************7 11**************************
*****************************megha********************7 11**************************
*****************************megha********************7 11**************************
*****************************megha********************6 11**************************
*****************************megha********************6 11**************************
*****************************megha********************5 11**************************
*****************************megha********************6 11**************************
*****************************megha********************6 11**************************
*****************************megha********************3 01**************************
*****************************megha********************7 11**************************
*****************************megha********************7 11**************************
*****************************megha********************3 00**************************
*****************************megha********************7 11**************************
*****************************megha********************4 11**************************
*****************************megha********************7 11**************************
*****************************megha********************7 11**************************
*****************************megha********************5 11**************************
*****************************megha********************7 11**************************
*****************************megha********************7 11**************************
*****************************megha********************7 11**************************
*****************************megha********************6 11**************************
*****************************megha********************7 11**************************
*****************************megha********************7 11**************************
*****************************megha********************7 11**************************
*****************************megha********************7 11**************************
*****************************megha********************7 11**************************
*****************************megha********************7 11**************************
*****************************megha********************7 11**************************
*****************************megha********************1 00**************************
*****************************megha********************7 11**************************
*****************************megha********************7 11**************************
*****************************megha********************7 11**************************
*****************************megha********************7 11**************************
*****************************megha********************5 11**************************
*****************************megha********************2 00**************************
*****************************megha********************7 11**************************
*****************************megha********************6 11**************************
*****************************megha********************6 11**************************
*****************************megha********************7 11**************************
*****************************megha********************7 11**************************
*****************************megha********************4 11**************************
*****************************megha********************7 11**************************
*****************************megha********************5 11**************************
*****************************megha********************7 11**************************
*****************************megha********************7 11**************************
*****************************megha********************7 11**************************
*****************************megha********************0 00**************************
*****************************megha********************7 11**************************
*****************************megha********************7 11**************************
*****************************megha********************7 11**************************
*****************************megha********************1 00**************************
*****************************megha********************7 11**************************
*****************************megha********************0 00**************************
*****************************megha********************7 11**************************
*****************************megha********************3 00**************************
*****************************megha********************5 11**************************
*****************************megha********************7 11**************************
*****************************megha********************3 00**************************
*****************************megha********************7 11**************************
*****************************megha********************2 00**************************
*****************************megha********************5 11**************************
*****************************megha********************7 11**************************
*****************************megha********************3 00**************************
*****************************megha********************3 00**************************
*****************************megha********************6 11**************************
*****************************megha********************2 01**************************
*****************************megha********************7 11**************************
*****************************megha********************0 00**************************
*****************************megha********************7 11**************************
*****************************megha********************3 00**************************
*****************************megha********************7 11**************************
*****************************megha********************6 11**************************
*****************************megha********************7 11**************************
*****************************megha********************7 11**************************
*****************************megha********************1 00**************************
*****************************megha********************3 00**************************
*****************************megha********************3 00**************************
*****************************megha********************2 00**************************
*****************************megha********************3 01**************************
*****************************megha********************5 11**************************
*****************************megha********************3 00**************************
*****************************megha********************3 00**************************
*****************************megha********************6 11**************************
*****************************megha********************2 00**************************
*****************************megha********************5 11**************************
*****************************megha********************3 00**************************
*****************************megha********************3 01**************************
*****************************megha********************5 11**************************
*****************************megha********************7 11**************************
*****************************megha********************6 11**************************
*****************************megha********************7 11**************************
*****************************megha********************5 11**************************
*****************************megha********************0 00**************************
*****************************megha********************3 00**************************
*****************************megha********************6 11**************************
*****************************megha********************7 11**************************
*****************************megha********************3 00**************************
*****************************megha********************1 00**************************
*****************************megha********************1 00**************************
*****************************megha********************5 10**************************
*****************************megha********************7 11**************************
*****************************megha********************7 11**************************
*****************************megha********************7 11**************************
*****************************megha********************7 11**************************
*****************************megha********************3 00**************************
*****************************megha********************6 11**************************
*****************************megha********************5 11**************************
*****************************megha********************1 00**************************
*****************************megha********************7 11**************************
*****************************megha********************1 00**************************
*****************************megha********************1 00**************************
*****************************megha********************5 11**************************
*****************************megha********************1 00**************************
*****************************megha********************6 11**************************
*****************************megha********************6 11**************************
*****************************megha********************7 11**************************
*****************************megha********************7 11**************************
*****************************megha********************6 11**************************
*****************************megha********************7 11**************************
*****************************megha********************3 00**************************
*****************************megha********************5 11**************************
*****************************megha********************2 00**************************
*****************************megha********************3 00**************************
*****************************megha********************6 11**************************
*****************************megha********************7 11**************************
*****************************megha********************7 11**************************
*****************************megha********************3 00**************************
*****************************megha********************2 00**************************
*****************************megha********************3 01**************************
*****************************megha********************1 00**************************
*****************************megha********************7 11**************************
*****************************megha********************2 00**************************
*****************************megha********************5 11**************************
*****************************megha********************4 11**************************
*****************************megha********************7 11**************************
*****************************megha********************3 00**************************
*****************************megha********************3 00**************************
*****************************megha********************3 00**************************
*****************************megha********************7 11**************************
*****************************megha********************4 11**************************
*****************************megha********************5 11**************************
*****************************megha********************7 11**************************
*****************************megha********************5 11**************************
*****************************megha********************5 10**************************
*****************************megha********************3 00**************************
*****************************megha********************3 00**************************
*****************************megha********************5 11**************************
*****************************megha********************0 00**************************
*****************************megha********************7 11**************************
*****************************megha********************2 00**************************
*****************************megha********************7 11**************************
*****************************megha********************3 00**************************
*****************************megha********************5 11**************************
*****************************megha********************5 11**************************
*****************************megha********************5 11**************************
*****************************megha********************7 11**************************
*****************************megha********************5 11**************************
*****************************megha********************3 00**************************
*****************************megha********************3 00**************************
*****************************megha********************7 11**************************
*****************************megha********************4 11**************************
*****************************megha********************3 00**************************
*****************************megha********************1 00**************************
*****************************megha********************3 00**************************
*****************************megha********************7 11**************************
*****************************megha********************1 00**************************
*****************************megha********************3 00**************************
*****************************megha********************6 11**************************
*****************************megha********************6 11**************************
*****************************megha********************5 10**************************
*****************************megha********************5 11**************************
*****************************megha********************5 11**************************
*****************************megha********************7 11**************************
*****************************megha********************5 11**************************
*****************************megha********************6 11**************************
*****************************megha********************6 11**************************
*****************************megha********************2 00**************************
*****************************megha********************7 11**************************
*****************************megha********************5 11**************************
*****************************megha********************7 11**************************
*****************************megha********************7 11**************************
*****************************megha********************6 11**************************
*****************************megha********************7 11**************************
*****************************megha********************6 11**************************
*****************************megha********************6 11**************************
*****************************megha********************5 11**************************
*****************************megha********************7 11**************************
*****************************megha********************7 11**************************
*****************************megha********************7 11**************************
*****************************megha********************7 11**************************
*****************************megha********************3 00**************************
*****************************megha********************7 11**************************
*****************************megha********************7 11**************************
*****************************megha********************5 10**************************
*****************************megha********************7 11**************************
*****************************megha********************3 00**************************
*****************************megha********************6 11**************************
*****************************megha********************7 11**************************
*****************************megha********************6 11**************************
*****************************megha********************7 11**************************
Heartbeat CPU 0 instructions: 20000000 cycles: 33423008 heartbeat IPC: 0.341471 cumulative IPC: 0.341471 (Simulation time: 0 hr 0 min 54 sec) 
Finished CPU 0 instructions: 10000000 cycles: 29285085 cumulative IPC: 0.341471 (Simulation time: 0 hr 0 min 54 sec) 

ChampSim completed all CPUs

Region of Interest Statistics

CPU 0 cumulative IPC: 0.341471 instructions: 10000000 cycles: 29285085
L1D TOTAL     ACCESS:    2902335  HIT:    2409519  MISS:     492816
L1D LOAD      ACCESS:    1827610  HIT:    1583384  MISS:     244226
L1D RFO       ACCESS:     411010  HIT:     407781  MISS:       3229
L1D PREFETCH  ACCESS:     663715  HIT:     418354  MISS:     245361
L1D WRITEBACK ACCESS:          0  HIT:          0  MISS:          0
L1D PREFETCH  REQUESTED:     831883  ISSUED:     808625  USEFUL:      48284  USELESS:     197031
L1D AVERAGE MISS LATENCY: 116.339 cycles
L1I TOTAL     ACCESS:    1772905  HIT:    1739211  MISS:      33694
L1I LOAD      ACCESS:    1772905  HIT:    1739211  MISS:      33694
L1I RFO       ACCESS:          0  HIT:          0  MISS:          0
L1I PREFETCH  ACCESS:          0  HIT:          0  MISS:          0
L1I WRITEBACK ACCESS:          0  HIT:          0  MISS:          0
L1I PREFETCH  REQUESTED:          0  ISSUED:          0  USEFUL:          0  USELESS:          0
L1I AVERAGE MISS LATENCY: 30.8471 cycles
L2C TOTAL     ACCESS:     758526  HIT:     205652  MISS:     552874
L2C LOAD      ACCESS:     250727  HIT:      55687  MISS:     195040
L2C RFO       ACCESS:       3182  HIT:       1976  MISS:       1206
L2C PREFETCH  ACCESS:     494992  HIT:     138423  MISS:     356569
L2C WRITEBACK ACCESS:       9625  HIT:       9566  MISS:         59
L2C PREFETCH  REQUESTED:     497153  ISSUED:     491708  USEFUL:      15750  USELESS:     338467
L2C AVERAGE MISS LATENCY: 131.705 cycles
LLC TOTAL     ACCESS:     557066  HIT:      93803  MISS:     463263
LLC LOAD      ACCESS:     188672  HIT:      56956  MISS:     131716
LLC RFO       ACCESS:       1200  HIT:        629  MISS:        571
LLC PREFETCH  ACCESS:     362943  HIT:      32615  MISS:     330328
LLC WRITEBACK ACCESS:       4251  HIT:       3603  MISS:        648
LLC PREFETCH  REQUESTED:          0  ISSUED:          0  USEFUL:       1005  USELESS:     328996
LLC AVERAGE MISS LATENCY: 117.379 cycles
Major fault: 0 Minor fault: 10726

OPTgen accesses: 6257
OPTgen hits: 4300
OPTgen hit rate: 68.723



DRAM Statistics
 CHANNEL 0
 RQ ROW_BUFFER_HIT:     335788  ROW_BUFFER_MISS:     126827
 DBUS_CONGESTED:     195033
 WQ ROW_BUFFER_HIT:        277  ROW_BUFFER_MISS:       1941  FULL:          0

 AVG_CONGESTED_CYCLE: 5

CPU 0 Branch Prediction Accuracy: 94.8575% MPKI: 13.5308 Average ROB Occupancy at Mispredict: 35.2367

Branch types
NOT_BRANCH: 7368471 73.6847%
BRANCH_DIRECT_JUMP: 21213 0.21213%
BRANCH_INDIRECT: 2896 0.02896%
BRANCH_CONDITIONAL: 2376059 23.7606%
BRANCH_DIRECT_CALL: 62935 0.62935%
BRANCH_INDIRECT_CALL: 52560 0.5256%
BRANCH_RETURN: 115500 1.155%
BRANCH_OTHER: 0 0%

