
*** ChampSim Multicore Out-of-Order Simulator ***

Warmup Instructions: 10000000
Simulation Instructions: 10000000
Number of CPUs: 1
LLC sets: 2048
LLC ways: 16
Off-chip DRAM Size: 4096 MB Channels: 1 Width: 64-bit Data Rate: 3200 MT/s

CPU 0 runs ../traces//459.GemsFDTD-1169B.champsimtrace.xz
CPU 0 Bimodal branch predictor
Initialize Hawkeye state
0
*************************************************0**************************
0
*************************************************0**************************
0
*************************************************0**************************
0
*************************************************0**************************
0
*************************************************0**************************
0
*************************************************0**************************
0
*************************************************0**************************
0
*************************************************0**************************
0
*************************************************0**************************
0
*************************************************0**************************
0
*************************************************0**************************
0
*************************************************0**************************
0
*************************************************0**************************
0
*************************************************0**************************
0
*************************************************0**************************
0
*************************************************0**************************
0
*************************************************0**************************
0
*************************************************0**************************
0
*************************************************0**************************
0
*************************************************0**************************
0
*************************************************0**************************
0
*************************************************0**************************
0
*************************************************0**************************
0
*************************************************0**************************
0
*************************************************0**************************
0
*************************************************0**************************
0
*************************************************0**************************
0
*************************************************0**************************
0
*************************************************0**************************
0
*************************************************0**************************
0
*************************************************0**************************
0
*************************************************0**************************
0
*************************************************0**************************
0
*************************************************0**************************
0
*************************************************0**************************
0
*************************************************0**************************
0
*************************************************0**************************
0
*************************************************0**************************
0
*************************************************0**************************
0
*************************************************0**************************
0
*************************************************0**************************
0
*************************************************0**************************
0
*************************************************0**************************
0
*************************************************0**************************
0
*************************************************0**************************
0
*************************************************0**************************
0
*************************************************0**************************
0
*************************************************0**************************
0
*************************************************0**************************
0
*************************************************0**************************
0
*************************************************0**************************
0
*************************************************0**************************
0
*************************************************0**************************
0
*************************************************0**************************
0
*************************************************0**************************
0
*************************************************0**************************
0
*************************************************0**************************
0
*************************************************0**************************
0
*************************************************0**************************
0
*************************************************0**************************
0
*************************************************0**************************
0
*************************************************0**************************
0
*************************************************0**************************
0
*************************************************0**************************
0
*************************************************0**************************
0
*************************************************0**************************
0
*************************************************0**************************
0
*************************************************0**************************
0
*************************************************0**************************
0
*************************************************0**************************
0
*************************************************0**************************
0
*************************************************0**************************
0
*************************************************0**************************
0
*************************************************0**************************
0
*************************************************0**************************
0
*************************************************0**************************
0
*************************************************0**************************
0
*************************************************0**************************
0
*************************************************0**************************
0
*************************************************0**************************
0
*************************************************0**************************
0
*************************************************0**************************
0
*************************************************0**************************
0
*************************************************0**************************
0
*************************************************0**************************
0
*************************************************0**************************
0
*************************************************0**************************
0
*************************************************0**************************
0
*************************************************0**************************
0
*************************************************0**************************
0
*************************************************0**************************
0
*************************************************0**************************
0
*************************************************0**************************
0
*************************************************0**************************
0
*************************************************0**************************
0
*************************************************0**************************
0
*************************************************0**************************
0
*************************************************0**************************
0
*************************************************0**************************
0
*************************************************0**************************
0
*************************************************0**************************
0
*************************************************0**************************
0
*************************************************0**************************
0
*************************************************0**************************
0
*************************************************0**************************
0
*************************************************0**************************
0
*************************************************0**************************
0
*************************************************0**************************
0
*************************************************0**************************
0
*************************************************0**************************
0
*************************************************0**************************
0
*************************************************0**************************
0
*************************************************0**************************
0
*************************************************0**************************
0
*************************************************0**************************
0
*************************************************0**************************
0
*************************************************0**************************
0
*************************************************0**************************
0
*************************************************0**************************
0
*************************************************0**************************
0
*************************************************0**************************
0
*************************************************0**************************
0
*************************************************0**************************
0
*************************************************0**************************
0
*************************************************0**************************
0
*************************************************0**************************
0
*************************************************0**************************
0
*************************************************0**************************
0
*************************************************0**************************
0
*************************************************0**************************
0
*************************************************0**************************
0
*************************************************0**************************
0
*************************************************0**************************
0
*************************************************0**************************
0
*************************************************0**************************
0
*************************************************0**************************
0
*************************************************0**************************
0
*************************************************0**************************
0
*************************************************0**************************
0
*************************************************0**************************
0
*************************************************0**************************
0
*************************************************0**************************
0
*************************************************0**************************
0
*************************************************0**************************
0
*************************************************0**************************
0
*************************************************0**************************
0
*************************************************0**************************
0
*************************************************0**************************
0
*************************************************0**************************
0
*************************************************0**************************
0
*************************************************0**************************
0
*************************************************0**************************
0
*************************************************0**************************
0
*************************************************0**************************
0
*************************************************0**************************
0
*************************************************0**************************
0
*************************************************0**************************
0
*************************************************0**************************
0
*************************************************0**************************
0
*************************************************0**************************
0
*************************************************0**************************
0
*************************************************0**************************
0
*************************************************0**************************
0
*************************************************0**************************
0
*************************************************0**************************
0
*************************************************0**************************
0
*************************************************0**************************
*****************************megha********************7 11**************************
0
*************************************************0**************************
*****************************megha********************7 11**************************
0
*************************************************0**************************
0
*************************************************0**************************
0
*************************************************0**************************
0
*************************************************0**************************
0
*************************************************0**************************
0
*************************************************0**************************
0
*************************************************0**************************
0
*************************************************0**************************
0
*************************************************0**************************
0
*************************************************0**************************
0
*************************************************0**************************
0
*************************************************0**************************
0
*************************************************0**************************
0
*************************************************0**************************
0
*************************************************0**************************
0
*************************************************0**************************
0
*************************************************0**************************
0
*************************************************0**************************
0
*************************************************0**************************
0
*************************************************0**************************
0
*************************************************0**************************
0
*************************************************0**************************
0
*************************************************0**************************
0
*************************************************0**************************
0
*************************************************0**************************
0
*************************************************0**************************
0
*************************************************0**************************
0
*************************************************0**************************
0
*************************************************0**************************
0
*************************************************0**************************
0
*************************************************0**************************
0
*************************************************0**************************
0
*************************************************0**************************
0
*************************************************0**************************
0
*************************************************0**************************
0
*************************************************0**************************
0
*************************************************0**************************
0
*************************************************0**************************
0
*************************************************0**************************
0
*************************************************0**************************
0
*************************************************0**************************
0
*************************************************0**************************
0
*************************************************0**************************
0
*************************************************0**************************
0
*************************************************0**************************
0
*************************************************0**************************
0
*************************************************0**************************
0
*************************************************0**************************
0
*************************************************0**************************
0
*************************************************0**************************
0
*************************************************0**************************
0
*************************************************0**************************
0
*************************************************0**************************
0
*************************************************0**************************
0
*************************************************0**************************
0
*************************************************0**************************
0
*************************************************0**************************
0
*************************************************0**************************
0
*************************************************0**************************
0
*************************************************0**************************
0
*************************************************0**************************
0
*************************************************0**************************
0
*************************************************0**************************
0
*************************************************0**************************
0
*************************************************0**************************
0
*************************************************0**************************
0
*************************************************0**************************
0
*************************************************0**************************
0
*************************************************0**************************
0
*************************************************0**************************
0
*************************************************0**************************
0
*************************************************0**************************
0
*************************************************0**************************
0
*************************************************0**************************
0
*************************************************0**************************
0
*************************************************0**************************
0
*************************************************0**************************
0
*************************************************0**************************
0
*************************************************0**************************
0
*************************************************0**************************
0
*************************************************0**************************
0
*************************************************0**************************
0
*************************************************0**************************
0
*************************************************0**************************
0
*************************************************0**************************
0
*************************************************0**************************
0
*************************************************0**************************
0
*************************************************0**************************
0
*************************************************0**************************
0
*************************************************0**************************
0
*************************************************0**************************
0
*************************************************0**************************
0
*************************************************0**************************
0
*************************************************0**************************
0
*************************************************0**************************
0
*************************************************0**************************
0
*************************************************0**************************
0
*************************************************0**************************
0
*************************************************0**************************
0
*************************************************0**************************
0
*************************************************0**************************
*****************************megha********************7 11**************************
0
*************************************************0**************************
*****************************megha********************7 11**************************
0
*************************************************0**************************
*****************************megha********************7 11**************************
0
*************************************************0**************************
0
*************************************************0**************************
*****************************megha********************7 11**************************
0
*************************************************0**************************
*****************************megha********************7 11**************************
0
*************************************************0**************************
*****************************megha********************7 11**************************
0
*************************************************0**************************
*****************************megha********************7 11**************************
0
*************************************************0**************************
*****************************megha********************7 11**************************
0
*************************************************0**************************
*****************************megha********************7 11**************************
*****************************megha********************7 11**************************
0
*************************************************0**************************
*****************************megha********************7 11**************************
0
*************************************************0**************************
*****************************megha********************7 11**************************
0
*************************************************0**************************
*****************************megha********************7 11**************************
0
*************************************************0**************************
*****************************megha********************7 11**************************
0
*************************************************0**************************
0
*************************************************0**************************
*****************************megha********************7 11**************************
0
*************************************************0**************************
*****************************megha********************7 11**************************
0
*************************************************0**************************
*****************************megha********************7 11**************************
0
*************************************************0**************************
*****************************megha********************7 11**************************
0
*************************************************0**************************
*****************************megha********************7 11**************************
0
*************************************************0**************************
*****************************megha********************7 11**************************
0
*************************************************0**************************
*****************************megha********************7 11**************************
0
*************************************************0**************************
*****************************megha********************7 11**************************
0
*************************************************0**************************
*****************************megha********************7 11**************************
0
*************************************************0**************************
*****************************megha********************7 11**************************
0
*************************************************0**************************
*****************************megha********************7 11**************************
*****************************megha********************7 11**************************
0
*************************************************0**************************
*****************************megha********************7 11**************************
0
*************************************************0**************************
*****************************megha********************7 11**************************
0
*************************************************0**************************
*****************************megha********************7 11**************************
0
*************************************************0**************************
*****************************megha********************7 11**************************
0
*************************************************0**************************
*****************************megha********************7 11**************************
0
*************************************************0**************************
*****************************megha********************7 11**************************
0
*************************************************0**************************
*****************************megha********************7 11**************************
0
*************************************************0**************************
*****************************megha********************7 11**************************
0
*************************************************0**************************
0
*************************************************0**************************
*****************************megha********************7 11**************************
0
*************************************************0**************************
*****************************megha********************7 11**************************
0
*************************************************0**************************
0
*************************************************0**************************
*****************************megha********************7 11**************************
*****************************megha********************7 11**************************
*****************************megha********************7 11**************************
*****************************megha********************7 11**************************
*****************************megha********************7 11**************************
*****************************megha********************7 11**************************
*****************************megha********************7 11**************************
*****************************megha********************7 11**************************
*****************************megha********************7 11**************************
*****************************megha********************7 11**************************
*****************************megha********************7 11**************************
*****************************megha********************7 11**************************
*****************************megha********************7 11**************************
*****************************megha********************7 11**************************
*****************************megha********************7 11**************************
*****************************megha********************7 11**************************
*****************************megha********************7 11**************************
*****************************megha********************7 11**************************
*****************************megha********************7 11**************************
*****************************megha********************7 11**************************
*****************************megha********************7 11**************************
*****************************megha********************7 11**************************
*****************************megha********************7 11**************************
*****************************megha********************7 11**************************
*****************************megha********************7 11**************************
*****************************megha********************7 11**************************
*****************************megha********************7 11**************************
*****************************megha********************7 11**************************
*****************************megha********************7 11**************************
*****************************megha********************7 11**************************
*****************************megha********************7 11**************************
*****************************megha********************7 11**************************
*****************************megha********************7 11**************************
*****************************megha********************7 11**************************
*****************************megha********************7 11**************************
*****************************megha********************7 11**************************
*****************************megha********************7 11**************************
*****************************megha********************7 11**************************
*****************************megha********************7 11**************************
*****************************megha********************7 11**************************
*****************************megha********************7 11**************************
*****************************megha********************7 11**************************
*****************************megha********************7 11**************************
*****************************megha********************7 11**************************
*****************************megha********************7 11**************************
*****************************megha********************7 11**************************
*****************************megha********************7 11**************************
*****************************megha********************7 11**************************
*****************************megha********************7 11**************************
*****************************megha********************7 11**************************
*****************************megha********************7 11**************************
*****************************megha********************7 11**************************
*****************************megha********************7 11**************************
*****************************megha********************7 11**************************
*****************************megha********************7 11**************************
*****************************megha********************7 11**************************
*****************************megha********************7 11**************************
*****************************megha********************7 11**************************
*****************************megha********************7 11**************************
*****************************megha********************7 11**************************
*****************************megha********************7 11**************************
*****************************megha********************7 11**************************
*****************************megha********************7 11**************************
*****************************megha********************7 11**************************
*****************************megha********************7 11**************************
*****************************megha********************7 11**************************
*****************************megha********************7 11**************************
*****************************megha********************7 11**************************
*****************************megha********************7 11**************************
*****************************megha********************7 11**************************
*****************************megha********************7 11**************************
*****************************megha********************7 11**************************
*****************************megha********************7 11**************************
*****************************megha********************7 11**************************
*****************************megha********************7 11**************************
*****************************megha********************7 11**************************
*****************************megha********************7 11**************************
*****************************megha********************7 11**************************
*****************************megha********************7 11**************************
*****************************megha********************7 11**************************
*****************************megha********************7 11**************************
*****************************megha********************7 11**************************
*****************************megha********************7 11**************************
*****************************megha********************7 11**************************
*****************************megha********************7 11**************************
*****************************megha********************7 11**************************
*****************************megha********************7 11**************************
*****************************megha********************7 11**************************
*****************************megha********************7 11**************************
*****************************megha********************7 11**************************
*****************************megha********************7 11**************************
*****************************megha********************7 11**************************
*****************************megha********************7 11**************************
*****************************megha********************7 11**************************
*****************************megha********************7 11**************************
*****************************megha********************7 11**************************
*****************************megha********************7 11**************************
*****************************megha********************7 11**************************
*****************************megha********************7 11**************************
*****************************megha********************7 11**************************
*****************************megha********************7 11**************************
*****************************megha********************7 11**************************
*****************************megha********************7 11**************************
*****************************megha********************7 11**************************
*****************************megha********************7 11**************************
*****************************megha********************7 11**************************
*****************************megha********************7 11**************************
*****************************megha********************7 11**************************
*****************************megha********************7 11**************************
*****************************megha********************7 11**************************
*****************************megha********************7 11**************************
*****************************megha********************7 11**************************
*****************************megha********************7 11**************************
*****************************megha********************7 11**************************
*****************************megha********************7 11**************************
*****************************megha********************7 11**************************
*****************************megha********************7 11**************************
*****************************megha********************7 11**************************
*****************************megha********************7 11**************************
*****************************megha********************7 11**************************
*****************************megha********************7 11**************************
*****************************megha********************7 11**************************
*****************************megha********************7 11**************************
*****************************megha********************7 11**************************
*****************************megha********************7 11**************************
0
*************************************************0**************************
0
*************************************************0**************************
0
*************************************************0**************************
0
*************************************************0**************************
0
*************************************************0**************************
0
*************************************************0**************************
0
*************************************************0**************************
0
*************************************************0**************************
0
*************************************************0**************************
0
*************************************************0**************************
0
*************************************************0**************************
0
*************************************************0**************************
0
*************************************************0**************************
0
*************************************************0**************************
0
*************************************************0**************************
0
*************************************************0**************************
0
*************************************************0**************************
*****************************megha********************7 11**************************
0
*************************************************0**************************
0
*************************************************0**************************
*****************************megha********************7 11**************************
0
*************************************************0**************************
0
*************************************************0**************************
0
*************************************************0**************************
0
*************************************************0**************************
0
*************************************************0**************************
0
*************************************************0**************************
0
*************************************************0**************************
0
*************************************************0**************************
0
*************************************************0**************************
0
*************************************************0**************************
0
*************************************************0**************************
*****************************megha********************7 11**************************
0
*************************************************0**************************
0
*************************************************0**************************
*****************************megha********************7 11**************************
0
*************************************************0**************************
0
*************************************************0**************************
0
*************************************************0**************************
0
*************************************************0**************************
0
*************************************************0**************************
0
*************************************************0**************************
0
*************************************************0**************************
0
*************************************************0**************************
0
*************************************************0**************************
0
*************************************************0**************************
*****************************megha********************7 11**************************
0
*************************************************0**************************
0
*************************************************0**************************
0
*************************************************0**************************
0
*************************************************0**************************
0
*************************************************0**************************
*****************************megha********************7 11**************************
0
*************************************************0**************************
0
*************************************************0**************************
0
*************************************************0**************************
0
*************************************************0**************************
0
*************************************************0**************************
*****************************megha********************7 11**************************
0
*************************************************0**************************
0
*************************************************0**************************
0
*************************************************0**************************
0
*************************************************0**************************
0
*************************************************0**************************
0
*************************************************0**************************
0
*************************************************0**************************
0
*************************************************0**************************
0
*************************************************0**************************
0
*************************************************0**************************
0
*************************************************0**************************
0
*************************************************0**************************
*****************************megha********************7 11**************************
0
*************************************************0**************************
0
*************************************************0**************************
0
*************************************************0**************************
0
*************************************************0**************************
0
*************************************************0**************************
0
*************************************************0**************************
0
*************************************************0**************************
0
*************************************************0**************************
0
*************************************************0**************************
0
*************************************************0**************************
*****************************megha********************7 11**************************
0
*************************************************0**************************
0
*************************************************0**************************
0
*************************************************0**************************
0
*************************************************0**************************
0
*************************************************0**************************
0
*************************************************0**************************
0
*************************************************0**************************
0
*************************************************0**************************
0
*************************************************0**************************
0
*************************************************0**************************
0
*************************************************0**************************
0
*************************************************0**************************
0
*************************************************0**************************
0
*************************************************0**************************
0
*************************************************0**************************
*****************************megha********************7 11**************************
*****************************megha********************7 11**************************
0
*************************************************0**************************
*****************************megha********************7 11**************************
0
*************************************************0**************************
*****************************megha********************7 11**************************
0
*************************************************0**************************
*****************************megha********************7 11**************************
0
*************************************************0**************************
*****************************megha********************7 11**************************
0
*************************************************0**************************
*****************************megha********************7 11**************************
0
*************************************************0**************************
*****************************megha********************7 11**************************
0
*************************************************0**************************
*****************************megha********************7 11**************************
0
*************************************************0**************************
*****************************megha********************7 11**************************
0
*************************************************0**************************
0
*************************************************0**************************
*****************************megha********************7 11**************************
0
*************************************************0**************************
*****************************megha********************7 11**************************
0
*************************************************0**************************
*****************************megha********************7 11**************************
*****************************megha********************7 11**************************
0
*************************************************0**************************
0
*************************************************0**************************
*****************************megha********************7 11**************************
0
*************************************************0**************************
*****************************megha********************7 11**************************
0
*************************************************0**************************
*****************************megha********************7 11**************************
0
*************************************************0**************************
*****************************megha********************7 11**************************
0
*************************************************0**************************
*****************************megha********************7 11**************************
0
*************************************************0**************************
*****************************megha********************7 11**************************
0
*************************************************0**************************
*****************************megha********************7 11**************************
0
*************************************************0**************************
*****************************megha********************7 11**************************
0
*************************************************0**************************
*****************************megha********************7 11**************************
0
*************************************************0**************************
*****************************megha********************7 11**************************
0
*************************************************0**************************
*****************************megha********************7 11**************************
0
*************************************************0**************************
*****************************megha********************7 11**************************
*****************************megha********************7 11**************************
0
*************************************************0**************************
*****************************megha********************7 11**************************
0
*************************************************0**************************
*****************************megha********************7 11**************************
0
*************************************************0**************************
*****************************megha********************7 11**************************
0
*************************************************0**************************
*****************************megha********************7 11**************************
0
*************************************************0**************************
*****************************megha********************7 11**************************
0
*************************************************0**************************
*****************************megha********************7 11**************************
0
*************************************************0**************************
*****************************megha********************7 11**************************
0
*************************************************0**************************
*****************************megha********************7 11**************************
0
*************************************************0**************************
*****************************megha********************7 11**************************
0
*************************************************0**************************
*****************************megha********************7 11**************************
0
*************************************************0**************************
*****************************megha********************7 11**************************
0
*************************************************0**************************
*****************************megha********************7 11**************************
0
*************************************************0**************************
*****************************megha********************7 11**************************
0
*************************************************0**************************
*****************************megha********************7 11**************************
0
*************************************************0**************************
*****************************megha********************7 11**************************
0
*************************************************0**************************
0
*************************************************0**************************
*****************************megha********************7 11**************************
0
*************************************************0**************************
*****************************megha********************7 11**************************
*****************************megha********************7 11**************************
0
*************************************************0**************************
*****************************megha********************7 11**************************
0
*************************************************0**************************
0
*************************************************0**************************
*****************************megha********************7 11**************************
0
*************************************************0**************************
*****************************megha********************7 11**************************
0
*************************************************0**************************
*****************************megha********************7 11**************************
0
*************************************************0**************************
*****************************megha********************7 11**************************
0
*************************************************0**************************
*****************************megha********************7 11**************************
0
*************************************************0**************************
*****************************megha********************7 11**************************
0
*************************************************0**************************
*****************************megha********************7 11**************************
0
*************************************************0**************************
*****************************megha********************7 11**************************
0
*************************************************0**************************
*****************************megha********************7 11**************************
0
*************************************************0**************************
*****************************megha********************7 11**************************
0
*************************************************0**************************
*****************************megha********************7 11**************************
0
*************************************************0**************************
*****************************megha********************7 11**************************
0
*************************************************0**************************
*****************************megha********************7 11**************************
0
*************************************************0**************************
*****************************megha********************7 11**************************
*****************************megha********************7 11**************************
0
*************************************************0**************************
*****************************megha********************7 11**************************
0
*************************************************0**************************
*****************************megha********************7 11**************************
0
*************************************************0**************************
*****************************megha********************7 11**************************
0
*************************************************0**************************
*****************************megha********************7 11**************************
0
*************************************************0**************************
*****************************megha********************7 11**************************
0
*************************************************0**************************
*****************************megha********************7 11**************************
0
*************************************************0**************************
*****************************megha********************7 11**************************
0
*************************************************0**************************
*****************************megha********************7 11**************************
0
*************************************************0**************************
*****************************megha********************7 11**************************
0
*************************************************0**************************
*****************************megha********************7 11**************************
0
*************************************************0**************************
*****************************megha********************7 11**************************
*****************************megha********************7 11**************************
*****************************megha********************7 11**************************
*****************************megha********************7 11**************************
*****************************megha********************7 11**************************
*****************************megha********************7 11**************************
*****************************megha********************7 11**************************
*****************************megha********************7 11**************************
*****************************megha********************7 11**************************
*****************************megha********************7 11**************************
*****************************megha********************7 11**************************
*****************************megha********************7 11**************************
*****************************megha********************7 11**************************
*****************************megha********************7 11**************************
*****************************megha********************7 11**************************
*****************************megha********************7 11**************************
*****************************megha********************7 11**************************
*****************************megha********************7 11**************************
*****************************megha********************7 11**************************
*****************************megha********************7 11**************************
*****************************megha********************7 11**************************
*****************************megha********************7 11**************************
*****************************megha********************7 11**************************
*****************************megha********************7 11**************************
*****************************megha********************7 11**************************
*****************************megha********************7 11**************************
*****************************megha********************7 11**************************
*****************************megha********************7 11**************************
*****************************megha********************7 11**************************
*****************************megha********************7 11**************************
*****************************megha********************7 11**************************
*****************************megha********************7 11**************************
*****************************megha********************7 11**************************
*****************************megha********************7 11**************************
*****************************megha********************7 11**************************
*****************************megha********************7 11**************************
*****************************megha********************7 11**************************
*****************************megha********************7 11**************************
*****************************megha********************7 11**************************
*****************************megha********************7 11**************************
*****************************megha********************7 11**************************
*****************************megha********************7 11**************************
*****************************megha********************7 11**************************
*****************************megha********************7 11**************************
*****************************megha********************7 11**************************
*****************************megha********************7 11**************************
*****************************megha********************7 11**************************
*****************************megha********************7 11**************************
*****************************megha********************7 11**************************
*****************************megha********************7 11**************************
*****************************megha********************7 11**************************
*****************************megha********************7 11**************************
*****************************megha********************7 11**************************
*****************************megha********************7 11**************************
*****************************megha********************7 11**************************
*****************************megha********************7 11**************************
*****************************megha********************7 11**************************
*****************************megha********************7 11**************************
*****************************megha********************7 11**************************
*****************************megha********************7 11**************************
*****************************megha********************7 11**************************
*****************************megha********************7 11**************************
*****************************megha********************7 11**************************
*****************************megha********************7 11**************************
*****************************megha********************7 11**************************
*****************************megha********************7 11**************************
*****************************megha********************7 11**************************
*****************************megha********************7 11**************************
*****************************megha********************7 11**************************
*****************************megha********************7 11**************************
*****************************megha********************7 11**************************
*****************************megha********************7 11**************************
*****************************megha********************7 11**************************
*****************************megha********************7 11**************************
*****************************megha********************7 11**************************
*****************************megha********************7 11**************************
*****************************megha********************7 11**************************
*****************************megha********************7 11**************************
*****************************megha********************7 11**************************
*****************************megha********************7 11**************************
*****************************megha********************7 11**************************
*****************************megha********************7 11**************************
*****************************megha********************7 11**************************
*****************************megha********************7 11**************************
*****************************megha********************7 11**************************
*****************************megha********************7 11**************************
*****************************megha********************7 11**************************
Heartbeat CPU 0 instructions: 10000001 cycles: 3308031 heartbeat IPC: 3.02295 cumulative IPC: 3.02295 (Simulation time: 0 hr 0 min 18 sec) 

Warmup complete CPU 0 instructions: 10000001 cycles: 3308031 (Simulation time: 0 hr 0 min 18 sec) 

*****************************megha********************7 11**************************
*****************************megha********************7 11**************************
*****************************megha********************7 11**************************
*****************************megha********************7 11**************************
*****************************megha********************7 11**************************
*****************************megha********************7 11**************************
*****************************megha********************7 11**************************
*****************************megha********************7 11**************************
*****************************megha********************7 11**************************
*****************************megha********************7 11**************************
*****************************megha********************7 11**************************
*****************************megha********************7 11**************************
*****************************megha********************7 11**************************
*****************************megha********************7 11**************************
*****************************megha********************7 11**************************
*****************************megha********************7 11**************************
*****************************megha********************7 11**************************
*****************************megha********************7 11**************************
*****************************megha********************7 11**************************
*****************************megha********************7 11**************************
*****************************megha********************7 11**************************
*****************************megha********************7 11**************************
*****************************megha********************7 11**************************
*****************************megha********************7 11**************************
*****************************megha********************7 11**************************
*****************************megha********************7 11**************************
*****************************megha********************7 11**************************
*****************************megha********************7 11**************************
*****************************megha********************7 11**************************
*****************************megha********************7 11**************************
*****************************megha********************7 11**************************
*****************************megha********************7 11**************************
*****************************megha********************7 11**************************
*****************************megha********************7 11**************************
*****************************megha********************7 11**************************
*****************************megha********************7 11**************************
*****************************megha********************7 11**************************
*****************************megha********************7 11**************************
*****************************megha********************7 11**************************
0
*************************************************0**************************
0
*************************************************0**************************
0
*************************************************0**************************
0
*************************************************0**************************
0
*************************************************0**************************
0
*************************************************0**************************
0
*************************************************0**************************
0
*************************************************0**************************
0
*************************************************0**************************
0
*************************************************0**************************
0
*************************************************0**************************
*****************************megha********************7 11**************************
0
*************************************************0**************************
0
*************************************************0**************************
0
*************************************************0**************************
*****************************megha********************7 11**************************
0
*************************************************0**************************
*****************************megha********************7 11**************************
0
*************************************************0**************************
*****************************megha********************7 11**************************
0
*************************************************0**************************
0
*************************************************0**************************
*****************************megha********************7 11**************************
0
*************************************************0**************************
0
*************************************************0**************************
0
*************************************************0**************************
0
*************************************************0**************************
0
*************************************************0**************************
0
*************************************************0**************************
0
*************************************************0**************************
0
*************************************************0**************************
0
*************************************************0**************************
*****************************megha********************7 11**************************
0
*************************************************0**************************
0
*************************************************0**************************
0
*************************************************0**************************
*****************************megha********************7 11**************************
0
*************************************************0**************************
*****************************megha********************7 11**************************
0
*************************************************0**************************
0
*************************************************0**************************
0
*************************************************0**************************
0
*************************************************0**************************
0
*************************************************0**************************
0
*************************************************0**************************
0
*************************************************0**************************
0
*************************************************0**************************
0
*************************************************0**************************
0
*************************************************0**************************
0
*************************************************0**************************
*****************************megha********************7 11**************************
0
*************************************************0**************************
0
*************************************************0**************************
0
*************************************************0**************************
*****************************megha********************7 11**************************
0
*************************************************0**************************
0
*************************************************0**************************
*****************************megha********************7 11**************************
0
*************************************************0**************************
0
*************************************************0**************************
0
*************************************************0**************************
0
*************************************************0**************************
0
*************************************************0**************************
*****************************megha********************7 11**************************
0
*************************************************0**************************
0
*************************************************0**************************
*****************************megha********************7 11**************************
0
*************************************************0**************************
0
*************************************************0**************************
0
*************************************************0**************************
0
*************************************************0**************************
0
*************************************************0**************************
0
*************************************************0**************************
0
*************************************************0**************************
0
*************************************************0**************************
0
*************************************************0**************************
*****************************megha********************7 11**************************
0
*************************************************0**************************
0
*************************************************0**************************
0
*************************************************0**************************
0
*************************************************0**************************
0
*************************************************0**************************
0
*************************************************0**************************
0
*************************************************0**************************
0
*************************************************0**************************
0
*************************************************0**************************
0
*************************************************0**************************
0
*************************************************0**************************
0
*************************************************0**************************
0
*************************************************0**************************
0
*************************************************0**************************
0
*************************************************0**************************
0
*************************************************0**************************
0
*************************************************0**************************
0
*************************************************0**************************
0
*************************************************0**************************
0
*************************************************0**************************
0
*************************************************0**************************
0
*************************************************0**************************
0
*************************************************0**************************
0
*************************************************0**************************
0
*************************************************0**************************
0
*************************************************0**************************
0
*************************************************0**************************
0
*************************************************0**************************
0
*************************************************0**************************
0
*************************************************0**************************
0
*************************************************0**************************
0
*************************************************0**************************
0
*************************************************0**************************
0
*************************************************0**************************
0
*************************************************0**************************
0
*************************************************0**************************
0
*************************************************0**************************
0
*************************************************0**************************
0
*************************************************0**************************
0
*************************************************0**************************
0
*************************************************0**************************
0
*************************************************0**************************
0
*************************************************0**************************
0
*************************************************0**************************
0
*************************************************0**************************
0
*************************************************0**************************
0
*************************************************0**************************
0
*************************************************0**************************
0
*************************************************0**************************
0
*************************************************0**************************
0
*************************************************0**************************
0
*************************************************0**************************
0
*************************************************0**************************
0
*************************************************0**************************
0
*************************************************0**************************
0
*************************************************0**************************
0
*************************************************0**************************
0
*************************************************0**************************
0
*************************************************0**************************
0
*************************************************0**************************
0
*************************************************0**************************
0
*************************************************0**************************
0
*************************************************0**************************
0
*************************************************0**************************
0
[...]
0
*************************************************0**************************
0
*************************************************0**************************
0
*************************************************0**************************
0
*************************************************0**************************
0
*************************************************0**************************
0
*************************************************0**************************
0
*************************************************0**************************
0
*************************************************0**************************
0
*************************************************0**************************
0
*************************************************0**************************
*****************************megha********************7 11**************************
0
*************************************************0**************************
0
*************************************************0**************************
*****************************megha********************7 11**************************
0
*************************************************0**************************
0
*************************************************0**************************
0
*************************************************0**************************
0
*************************************************0**************************
0
*************************************************0**************************
0
*************************************************0**************************
0
*************************************************0**************************
*****************************megha********************7 11**************************
0
*************************************************0**************************
0
*************************************************0**************************
0
*************************************************0**************************
0
*************************************************0**************************
0
*************************************************0**************************
0
*************************************************0**************************
0
*************************************************0**************************
0
*************************************************0**************************
0
*************************************************0**************************
0
*************************************************0**************************
*****************************megha********************7 11**************************
0
*************************************************0**************************
0
*************************************************0**************************
0
*************************************************0**************************
0
*************************************************0**************************
0
*************************************************0**************************
0
*************************************************0**************************
0
*************************************************0**************************
0
*************************************************0**************************
0
*************************************************0**************************
0
*************************************************0**************************
*****************************megha********************7 11**************************
0
*************************************************0**************************
0
*************************************************0**************************
0
*************************************************0**************************
0
*************************************************0**************************
0
*************************************************0**************************
0
*************************************************0**************************
0
*************************************************0**************************
0
*************************************************0**************************
0
*************************************************0**************************
0
*************************************************0**************************
0
*************************************************0**************************
0
*************************************************0**************************
0
*************************************************0**************************
0
*************************************************0**************************
0
*************************************************0**************************
0
*************************************************0**************************
0
*************************************************0**************************
0
*************************************************0**************************
0
*************************************************0**************************
0
*************************************************0**************************
0
*************************************************0**************************
*****************************megha********************7 11**************************
0
*************************************************0**************************
0
*************************************************0**************************
0
*************************************************0**************************
0
*************************************************0**************************
0
*************************************************0**************************
0
*************************************************0**************************
0
*************************************************0**************************
0
*************************************************0**************************
0
*************************************************0**************************
0
*************************************************0**************************
0
*************************************************0**************************
0
*************************************************0**************************
0
*************************************************0**************************
0
*************************************************0**************************
0
*************************************************0**************************
0
*************************************************0**************************
0
*************************************************0**************************
0
*************************************************0**************************
0
*************************************************0**************************
0
*************************************************0**************************
0
*************************************************0**************************
*****************************megha********************7 11**************************
0
*************************************************0**************************
*****************************megha********************7 11**************************
0
*************************************************0**************************
0
*************************************************0**************************
0
*************************************************0**************************
0
*************************************************0**************************
0
*************************************************0**************************
0
*************************************************0**************************
0
*************************************************0**************************
0
*************************************************0**************************
0
*************************************************0**************************
*****************************megha********************7 11**************************
0
*************************************************0**************************
0
*************************************************0**************************
0
*************************************************0**************************
0
*************************************************0**************************
*****************************megha********************7 11**************************
0
*************************************************0**************************
0
*************************************************0**************************
0
*************************************************0**************************
0
*************************************************0**************************
0
*************************************************0**************************
0
*************************************************0**************************
0
*************************************************0**************************
0
*************************************************0**************************
*****************************megha********************7 11**************************
0
*************************************************0**************************
0
*************************************************0**************************
0
*************************************************0**************************
0
*************************************************0**************************
0
*************************************************0**************************
0
*************************************************0**************************
0
*************************************************0**************************
0
*************************************************0**************************
0
*************************************************0**************************
0
*************************************************0**************************
0
*************************************************0**************************
0
*************************************************0**************************
0
*************************************************0**************************
0
*************************************************0**************************
0
*************************************************0**************************
0
*************************************************0**************************
0
*************************************************0**************************
0
*************************************************0**************************
0
*************************************************0**************************
0
*************************************************0**************************
0
*************************************************0**************************
0
*************************************************0**************************
0
*************************************************0**************************
0
*************************************************0**************************
0
*************************************************0**************************
0
*************************************************0**************************
0
*************************************************0**************************
0
*************************************************0**************************
0
*************************************************0**************************
0
*************************************************0**************************
0
*************************************************0**************************
0
*************************************************0**************************
0
*************************************************0**************************
0
*************************************************0**************************
0
*************************************************0**************************
0
*************************************************0**************************
0
*************************************************0**************************
0
*************************************************0**************************
0
*************************************************0**************************
0
*************************************************0**************************
0
*************************************************0**************************
0
*************************************************0**************************
0
*************************************************0**************************
0
*************************************************0**************************
0
*************************************************0**************************
0
*************************************************0**************************
0
*************************************************0**************************
0
*************************************************0**************************
*****************************megha********************7 11**************************
0
*************************************************0**************************
0
*************************************************0**************************
0
*************************************************0**************************
0
*************************************************0**************************
0
*************************************************0**************************
0
*************************************************0**************************
0
*************************************************0**************************
0
*************************************************0**************************
0
*************************************************0**************************
*****************************megha********************7 11**************************
0
*************************************************0**************************
0
*************************************************0**************************
0
*************************************************0**************************
0
*************************************************0**************************
0
*************************************************0**************************
0
*************************************************0**************************
0
*************************************************0**************************
0
*************************************************0**************************
0
*************************************************0**************************
0
*************************************************0**************************
0
*************************************************0**************************
0
*************************************************0**************************
0
*************************************************0**************************
0
*************************************************0**************************
0
*************************************************0**************************
*****************************megha********************7 11**************************
0
*************************************************0**************************
0
*************************************************0**************************
0
*************************************************0**************************
0
*************************************************0**************************
0
*************************************************0**************************
0
*************************************************0**************************
0
*************************************************0**************************
0
*************************************************0**************************
0
*************************************************0**************************
0
*************************************************0**************************
0
*************************************************0**************************
0
*************************************************0**************************
0
*************************************************0**************************
0
*************************************************0**************************
0
*************************************************0**************************
0
*************************************************0**************************
*****************************megha********************7 11**************************
0
*************************************************0**************************
0
*************************************************0**************************
0
*************************************************0**************************
0
*************************************************0**************************
0
*************************************************0**************************
0
*************************************************0**************************
0
*************************************************0**************************
0
*************************************************0**************************
Heartbeat CPU 0 instructions: 20000003 cycles: 19786615 heartbeat IPC: 0.606848 cumulative IPC: 0.606848 (Simulation time: 0 hr 0 min 52 sec) 
Finished CPU 0 instructions: 10000002 cycles: 16478584 cumulative IPC: 0.606848 (Simulation time: 0 hr 0 min 52 sec) 

ChampSim completed all CPUs

Region of Interest Statistics

CPU 0 cumulative IPC: 0.606848 instructions: 10000002 cycles: 16478584
L1D TOTAL     ACCESS:    4771584  HIT:    4338134  MISS:     433450
L1D LOAD      ACCESS:    3296237  HIT:    3170127  MISS:     126110
L1D RFO       ACCESS:     478854  HIT:     466285  MISS:      12569
L1D PREFETCH  ACCESS:     996493  HIT:     701722  MISS:     294771
L1D WRITEBACK ACCESS:          0  HIT:          0  MISS:          0
L1D PREFETCH  REQUESTED:    1083858  ISSUED:    1033767  USEFUL:     169330  USELESS:     125173
L1D AVERAGE MISS LATENCY: 102.07 cycles
L1I TOTAL     ACCESS:    1790583  HIT:    1790519  MISS:         64
L1I LOAD      ACCESS:    1790583  HIT:    1790519  MISS:         64
L1I RFO       ACCESS:          0  HIT:          0  MISS:          0
L1I PREFETCH  ACCESS:          0  HIT:          0  MISS:          0
L1I WRITEBACK ACCESS:          0  HIT:          0  MISS:          0
L1I PREFETCH  REQUESTED:          0  ISSUED:          0  USEFUL:          0  USELESS:          0
L1I AVERAGE MISS LATENCY: 201.734 cycles
L2C TOTAL     ACCESS:     909457  HIT:     601604  MISS:     307853
L2C LOAD      ACCESS:     125418  HIT:      47967  MISS:      77451
L2C RFO       ACCESS:      12569  HIT:        564  MISS:      12005
L2C PREFETCH  ACCESS:     689047  HIT:     470659  MISS:     218388
L2C WRITEBACK ACCESS:      82423  HIT:      82414  MISS:          9
L2C PREFETCH  REQUESTED:     535163  ISSUED:     531848  USEFUL:       8559  USELESS:     206975
L2C AVERAGE MISS LATENCY: 178.668 cycles
LLC TOTAL     ACCESS:     336390  HIT:      87195  MISS:     249195
LLC LOAD      ACCESS:      77338  HIT:       4980  MISS:      72358
LLC RFO       ACCESS:      12005  HIT:       2155  MISS:       9850
LLC PREFETCH  ACCESS:     218498  HIT:      52171  MISS:     166327
LLC WRITEBACK ACCESS:      28549  HIT:      27889  MISS:        660
LLC PREFETCH  REQUESTED:          0  ISSUED:          0  USEFUL:       2975  USELESS:     164186
LLC AVERAGE MISS LATENCY: 178.341 cycles
Major fault: 0 Minor fault: 19092

OPTgen accesses: 1811
OPTgen hits: 716
OPTgen hit rate: 39.5362



DRAM Statistics
 CHANNEL 0
 RQ ROW_BUFFER_HIT:      83932  ROW_BUFFER_MISS:     164596
 DBUS_CONGESTED:     110055
 WQ ROW_BUFFER_HIT:       8590  ROW_BUFFER_MISS:      24640  FULL:          0

 AVG_CONGESTED_CYCLE: 4

CPU 0 Branch Prediction Accuracy: 99.8944% MPKI: 0.0432 Average ROB Occupancy at Mispredict: 188.898

Branch types
NOT_BRANCH: 9590763 95.9076%
BRANCH_DIRECT_JUMP: 103 0.00103%
BRANCH_INDIRECT: 0 0%
BRANCH_CONDITIONAL: 279071 2.79071%
BRANCH_DIRECT_CALL: 65029 0.65029%
BRANCH_INDIRECT_CALL: 0 0%
BRANCH_RETURN: 65032 0.65032%
BRANCH_OTHER: 0 0%

