
*** ChampSim Multicore Out-of-Order Simulator ***

Warmup Instructions: 10000000
Simulation Instructions: 10000000
Number of CPUs: 1
LLC sets: 2048
LLC ways: 16
Off-chip DRAM Size: 4096 MB Channels: 1 Width: 64-bit Data Rate: 3200 MT/s

CPU 0 runs ../traces//482.sphinx3-1100B.champsimtrace.xz
CPU 0 Bimodal branch predictor
Initialize Hawkeye state
0
*************************************************0**************************
0
*************************************************0**************************
0
*************************************************0**************************
0
*************************************************0**************************
0
*************************************************0**************************
0
*************************************************0**************************
0
*************************************************0**************************
0
*************************************************0**************************
0
*************************************************0**************************
0
*************************************************0**************************
0
*************************************************0**************************
0
*************************************************0**************************
0
*************************************************0**************************
0
*************************************************0**************************
0
*************************************************0**************************
0
*************************************************0**************************
0
*************************************************0**************************
0
*************************************************0**************************
0
*************************************************0**************************
0
*************************************************0**************************
0
*************************************************0**************************
0
*************************************************0**************************
0
*************************************************0**************************
0
*************************************************0**************************
0
*************************************************0**************************
0
*************************************************0**************************
0
*************************************************0**************************
0
*************************************************0**************************
0
*************************************************0**************************
0
*************************************************0**************************
0
*************************************************0**************************
0
*************************************************0**************************
0
*************************************************0**************************
0
*************************************************0**************************
0
*************************************************0**************************
0
*************************************************0**************************
0
*************************************************0**************************
0
*************************************************0**************************
0
*************************************************0**************************
0
*************************************************0**************************
0
*************************************************0**************************
0
*************************************************0**************************
0
*************************************************0**************************
0
*************************************************0**************************
0
*************************************************0**************************
0
*************************************************0**************************
0
*************************************************0**************************
0
*************************************************0**************************
0
*************************************************0**************************
0
*************************************************0**************************
0
*************************************************0**************************
0
*************************************************0**************************
0
*************************************************0**************************
0
*************************************************0**************************
0
*************************************************0**************************
0
*************************************************0**************************
0
*************************************************0**************************
0
*************************************************0**************************
0
*************************************************0**************************
0
*************************************************0**************************
0
*************************************************0**************************
0
*************************************************0**************************
0
*************************************************0**************************
0
*************************************************0**************************
0
*************************************************0**************************
0
*************************************************0**************************
0
*************************************************0**************************
0
*************************************************0**************************
0
*************************************************0**************************
0
*************************************************0**************************
0
*************************************************0**************************
0
*************************************************0**************************
0
*************************************************0**************************
0
*************************************************0**************************
0
*************************************************0**************************
0
*************************************************0**************************
0
*************************************************0**************************
0
*************************************************0**************************
0
*************************************************0**************************
0
*************************************************0**************************
0
*************************************************0**************************
0
*************************************************0**************************
0
*************************************************0**************************
0
*************************************************0**************************
0
*************************************************0**************************
0
*************************************************0**************************
0
*************************************************0**************************
0
*************************************************0**************************
0
*************************************************0**************************
0
*************************************************0**************************
0
*************************************************0**************************
0
*************************************************0**************************
0
*************************************************0**************************
0
*************************************************0**************************
0
*************************************************0**************************
0
*************************************************0**************************
0
*************************************************0**************************
0
*************************************************0**************************
0
*************************************************0**************************
0
*************************************************0**************************
0
*************************************************0**************************
0
*************************************************0**************************
0
*************************************************0**************************
0
*************************************************0**************************
0
*************************************************0**************************
0
*************************************************0**************************
0
*************************************************0**************************
0
*************************************************0**************************
0
*************************************************0**************************
0
*************************************************0**************************
0
*************************************************0**************************
0
*************************************************0**************************
0
*************************************************0**************************
0
*************************************************0**************************
0
*************************************************0**************************
0
*************************************************0**************************
0
*************************************************0**************************
0
*************************************************0**************************
0
*************************************************0**************************
0
*************************************************0**************************
0
*************************************************0**************************
0
*************************************************0**************************
0
*************************************************0**************************
0
*************************************************0**************************
0
*************************************************0**************************
0
*************************************************0**************************
0
*************************************************0**************************
0
*************************************************0**************************
0
*************************************************0**************************
0
*************************************************0**************************
0
*************************************************0**************************
0
*************************************************0**************************
0
*************************************************0**************************
0
*************************************************0**************************
0
*************************************************0**************************
0
*************************************************0**************************
0
*************************************************0**************************
0
*************************************************0**************************
0
*************************************************0**************************
0
*************************************************0**************************
0
*************************************************0**************************
0
*************************************************0**************************
0
*************************************************0**************************
0
*************************************************0**************************
0
*************************************************0**************************
0
*************************************************0**************************
0
*************************************************0**************************
0
*************************************************0**************************
0
*************************************************0**************************
0
*************************************************0**************************
0
*************************************************0**************************
0
*************************************************0**************************
0
*************************************************0**************************
0
*************************************************0**************************
0
*************************************************0**************************
0
*************************************************0**************************
0
*************************************************0**************************
0
*************************************************0**************************
0
*************************************************0**************************
0
*************************************************0**************************
0
*************************************************0**************************
0
*************************************************0**************************
0
*************************************************0**************************
0
*************************************************0**************************
0
*************************************************0**************************
0
*************************************************0**************************
0
*************************************************0**************************
0
*************************************************0**************************
0
*************************************************0**************************
0
*************************************************0**************************
0
*************************************************0**************************
0
*************************************************0**************************
0
*************************************************0**************************
0
*************************************************0**************************
0
*************************************************0**************************
0
*************************************************0**************************
0
*************************************************0**************************
0
*************************************************0**************************
0
*************************************************0**************************
0
*************************************************0**************************
0
*************************************************0**************************
0
*************************************************0**************************
0
*************************************************0**************************
0
*************************************************0**************************
0
*************************************************0**************************
0
*************************************************0**************************
0
*************************************************0**************************
0
*************************************************0**************************
0
*************************************************0**************************
0
*************************************************0**************************
0
*************************************************0**************************
0
*************************************************0**************************
0
*************************************************0**************************
0
*************************************************0**************************
0
*************************************************0**************************
0
*************************************************0**************************
0
*************************************************0**************************
0
*************************************************0**************************
0
*************************************************0**************************
0
*************************************************0**************************
0
*************************************************0**************************
0
*************************************************0**************************
0
*************************************************0**************************
0
*************************************************0**************************
0
*************************************************0**************************
0
*************************************************0**************************
0
*************************************************0**************************
0
*************************************************0**************************
0
*************************************************0**************************
0
*************************************************0**************************
0
*************************************************0**************************
0
*************************************************0**************************
0
*************************************************0**************************
0
*************************************************0**************************
0
*************************************************0**************************
0
*************************************************0**************************
0
*************************************************0**************************
0
*************************************************0**************************
0
*************************************************0**************************
0
*************************************************0**************************
0
*************************************************0**************************
0
*************************************************0**************************
0
*************************************************0**************************
0
*************************************************0**************************
0
*************************************************0**************************
0
*************************************************0**************************
0
*************************************************0**************************
0
*************************************************0**************************
0
*************************************************0**************************
0
*************************************************0**************************
0
*************************************************0**************************
0
*************************************************0**************************
0
*************************************************0**************************
0
*************************************************0**************************
0
*************************************************0**************************
0
*************************************************0**************************
0
*************************************************0**************************
0
*************************************************0**************************
0
*************************************************0**************************
0
*************************************************0**************************
0
*************************************************0**************************
0
*************************************************0**************************
0
*************************************************0**************************
0
*************************************************0**************************
0
*************************************************0**************************
0
*************************************************0**************************
0
*************************************************0**************************
0
*************************************************0**************************
0
*************************************************0**************************
0
*************************************************0**************************
0
*************************************************0**************************
0
*************************************************0**************************
0
*************************************************0**************************
0
*************************************************0**************************
0
*************************************************0**************************
0
*************************************************0**************************
0
*************************************************0**************************
0
*************************************************0**************************
0
*************************************************0**************************
0
*************************************************0**************************
0
*************************************************0**************************
0
*************************************************0**************************
0
*************************************************0**************************
0
*************************************************0**************************
0
*************************************************0**************************
0
*************************************************0**************************
0
*************************************************0**************************
0
*************************************************0**************************
0
*************************************************0**************************
0
*************************************************0**************************
0
*************************************************0**************************
0
*************************************************0**************************
0
*************************************************0**************************
0
*************************************************0**************************
0
*************************************************0**************************
0
*************************************************0**************************
0
*************************************************0**************************
0
*************************************************0**************************
0
*************************************************0**************************
0
*************************************************0**************************
0
*************************************************0**************************
0
*************************************************0**************************
0
*************************************************0**************************
0
*************************************************0**************************
0
*************************************************0**************************
*****************************megha********************7 11**************************
0
*************************************************0**************************
0
*************************************************0**************************
0
*************************************************0**************************
0
*************************************************0**************************
0
*************************************************0**************************
0
*************************************************0**************************
0
*************************************************0**************************
0
*************************************************0**************************
0
*************************************************0**************************
0
*************************************************0**************************
0
*************************************************0**************************
0
*************************************************0**************************
*****************************megha********************7 11**************************
0
*************************************************0**************************
0
*************************************************0**************************
0
*************************************************0**************************
0
*************************************************0**************************
0
*************************************************0**************************
0
*************************************************0**************************
0
*************************************************0**************************
0
*************************************************0**************************
0
*************************************************0**************************
0
*************************************************0**************************
0
*************************************************0**************************
0
*************************************************0**************************
0
*************************************************0**************************
0
*************************************************0**************************
0
*************************************************0**************************
0
*************************************************0**************************
0
*************************************************0**************************
*****************************megha********************7 11**************************
0
*************************************************0**************************
0
*************************************************0**************************
0
*************************************************0**************************
0
*************************************************0**************************
0
*************************************************0**************************
0
*************************************************0**************************
0
*************************************************0**************************
0
*************************************************0**************************
*****************************megha********************7 11**************************
0
*************************************************0**************************
0
*************************************************0**************************
0
*************************************************0**************************
0
*************************************************0**************************
0
*************************************************0**************************
0
*************************************************0**************************
0
*************************************************0**************************
0
*************************************************0**************************
0
*************************************************0**************************
0
*************************************************0**************************
0
*************************************************0**************************
0
*************************************************0**************************
0
*************************************************0**************************
0
*************************************************0**************************
0
*************************************************0**************************
0
*************************************************0**************************
0
*************************************************0**************************
0
*************************************************0**************************
0
*************************************************0**************************
0
*************************************************0**************************
0
*************************************************0**************************
0
*************************************************0**************************
0
*************************************************0**************************
0
*************************************************0**************************
0
*************************************************0**************************
0
*************************************************0**************************
0
*************************************************0**************************
0
*************************************************0**************************
0
*************************************************0**************************
0
*************************************************0**************************
0
*************************************************0**************************
0
*************************************************0**************************
0
*************************************************0**************************
0
*************************************************0**************************
0
*************************************************0**************************
0
*************************************************0**************************
0
*************************************************0**************************
0
*************************************************0**************************
0
*************************************************0**************************
0
*************************************************0**************************
0
*************************************************0**************************
0
*************************************************0**************************
0
*************************************************0**************************
0
*************************************************0**************************
0
*************************************************0**************************
0
*************************************************0**************************
0
*************************************************0**************************
0
*************************************************0**************************
0
*************************************************0**************************
0
*************************************************0**************************
0
*************************************************0**************************
0
*************************************************0**************************
0
*************************************************0**************************
0
*************************************************0**************************
0
*************************************************0**************************
0
*************************************************0**************************
0
*************************************************0**************************
0
*************************************************0**************************
0
*************************************************0**************************
0
*************************************************0**************************
0
*************************************************0**************************
*****************************megha********************7 11**************************
0
*************************************************0**************************
0
*************************************************0**************************
0
*************************************************0**************************
0
*************************************************0**************************
0
*************************************************0**************************
0
*************************************************0**************************
0
*************************************************0**************************
0
*************************************************0**************************
0
*************************************************0**************************
0
*************************************************0**************************
0
*************************************************0**************************
0
*************************************************0**************************
0
*************************************************0**************************
0
*************************************************0**************************
0
*************************************************0**************************
0
*************************************************0**************************
0
*************************************************0**************************
0
*************************************************0**************************
0
*************************************************0**************************
0
*************************************************0**************************
0
*************************************************0**************************
0
*************************************************0**************************
0
*************************************************0**************************
0
*************************************************0**************************
0
*************************************************0**************************
0
*************************************************0**************************
0
*************************************************0**************************
0
*************************************************0**************************
0
*************************************************0**************************
0
*************************************************0**************************
0
*************************************************0**************************
0
*************************************************0**************************
0
*************************************************0**************************
0
*************************************************0**************************
0
*************************************************0**************************
0
*************************************************0**************************
0
*************************************************0**************************
0
*************************************************0**************************
0
*************************************************0**************************
0
*************************************************0**************************
0
*************************************************0**************************
0
*************************************************0**************************
0
*************************************************0**************************
0
*************************************************0**************************
0
*************************************************0**************************
0
*************************************************0**************************
0
*************************************************0**************************
0
*************************************************0**************************
0
*************************************************0**************************
0
*************************************************0**************************
0
*************************************************0**************************
0
*************************************************0**************************
*****************************megha********************7 11**************************
0
*************************************************0**************************
0
*************************************************0**************************
0
*************************************************0**************************
0
*************************************************0**************************
0
*************************************************0**************************
0
*************************************************0**************************
0
*************************************************0**************************
0
*************************************************0**************************
0
*************************************************0**************************
0
*************************************************0**************************
0
*************************************************0**************************
0
*************************************************0**************************
0
*************************************************0**************************
0
*************************************************0**************************
0
*************************************************0**************************
0
*************************************************0**************************
0
*************************************************0**************************
0
*************************************************0**************************
0
*************************************************0**************************
0
*************************************************0**************************
0
*************************************************0**************************
0
*************************************************0**************************
0
*************************************************0**************************
0
*************************************************0**************************
0
*************************************************0**************************
0
*************************************************0**************************
0
*************************************************0**************************
0
*************************************************0**************************
0
*************************************************0**************************
0
*************************************************0**************************
0
*************************************************0**************************
0
*************************************************0**************************
0
*************************************************0**************************
0
*************************************************0**************************
0
*************************************************0**************************
0
*************************************************0**************************
0
*************************************************0**************************
0
*************************************************0**************************
0
*************************************************0**************************
0
*************************************************0**************************
0
*************************************************0**************************
0
*************************************************0**************************
0
*************************************************0**************************
0
*************************************************0**************************
0
*************************************************0**************************
0
*************************************************0**************************
0
*************************************************0**************************
0
*************************************************0**************************
0
*************************************************0**************************
0
*************************************************0**************************
0
*************************************************0**************************
0
*************************************************0**************************
0
*************************************************0**************************
0
*************************************************0**************************
0
*************************************************0**************************
0
*************************************************0**************************
0
*************************************************0**************************
0
*************************************************0**************************
0
*************************************************0**************************
0
*************************************************0**************************
0
*************************************************0**************************
0
*************************************************0**************************
0
*************************************************0**************************
0
*************************************************0**************************
0
*************************************************0**************************
0
*************************************************0**************************
0
*************************************************0**************************
*****************************megha********************7 11**************************
0
*************************************************0**************************
0
*************************************************0**************************
0
*************************************************0**************************
0
*************************************************0**************************
0
*************************************************0**************************
0
*************************************************0**************************
0
*************************************************0**************************
0
*************************************************0**************************
0
*************************************************0**************************
0
*************************************************0**************************
0
*************************************************0**************************
0
*************************************************0**************************
0
*************************************************0**************************
0
*************************************************0**************************
0
*************************************************0**************************
0
*************************************************0**************************
0
*************************************************0**************************
0
*************************************************0**************************
0
*************************************************0**************************
0
*************************************************0**************************
0
*************************************************0**************************
0
*************************************************0**************************
0
*************************************************0**************************
0
*************************************************0**************************
0
*************************************************0**************************
0
*************************************************0**************************
0
*************************************************0**************************
0
*************************************************0**************************
0
*************************************************0**************************
0
*************************************************0**************************
0
*************************************************0**************************
0
*************************************************0**************************
0
*************************************************0**************************
0
*************************************************0**************************
0
*************************************************0**************************
0
*************************************************0**************************
0
*************************************************0**************************
0
*************************************************0**************************
0
*************************************************0**************************
0
*************************************************0**************************
0
*************************************************0**************************
0
*************************************************0**************************
0
*************************************************0**************************
0
*************************************************0**************************
0
*************************************************0**************************
0
*************************************************0**************************
0
*************************************************0**************************
0
*************************************************0**************************
0
*************************************************0**************************
0
*************************************************0**************************
0
*************************************************0**************************
0
*************************************************0**************************
0
*************************************************0**************************
0
*************************************************0**************************
0
*************************************************0**************************
0
*************************************************0**************************
0
*************************************************0**************************
0
*************************************************0**************************
0
*************************************************0**************************
0
*************************************************0**************************
0
*************************************************0**************************
0
*************************************************0**************************
0
*************************************************0**************************
0
*************************************************0**************************
0
*************************************************0**************************
0
*************************************************0**************************
0
*************************************************0**************************
0
*************************************************0**************************
0
*************************************************0**************************
0
*************************************************0**************************
0
*************************************************0**************************
0
*************************************************0**************************
0
*************************************************0**************************
0
*************************************************0**************************
0
*************************************************0**************************
0
*************************************************0**************************
0
*************************************************0**************************
0
*************************************************0**************************
0
*************************************************0**************************
0
*************************************************0**************************
0
*************************************************0**************************
0
*************************************************0**************************
0
*************************************************0**************************
0
*************************************************0**************************
0
*************************************************0**************************
0
*************************************************0**************************
0
*************************************************0**************************
0
*************************************************0**************************
0
*************************************************0**************************
*****************************megha********************7 11**************************
0
*************************************************0**************************
0
*************************************************0**************************
0
*************************************************0**************************
0
*************************************************0**************************
0
*************************************************0**************************
0
*************************************************0**************************
0
*************************************************0**************************
*****************************megha********************7 11**************************
0
*************************************************0**************************
0
*************************************************0**************************
0
*************************************************0**************************
0
*************************************************0**************************
0
*************************************************0**************************
0
*************************************************0**************************
0
*************************************************0**************************
0
*************************************************0**************************
0
*************************************************0**************************
0
*************************************************0**************************
0
*************************************************0**************************
0
*************************************************0**************************
0
*************************************************0**************************
0
*************************************************0**************************
0
*************************************************0**************************
0
*************************************************0**************************
0
*************************************************0**************************
0
*************************************************0**************************
0
*************************************************0**************************
0
*************************************************0**************************
0
*************************************************0**************************
0
*************************************************0**************************
0
*************************************************0**************************
0
*************************************************0**************************
0
*************************************************0**************************
0
*************************************************0**************************
0
*************************************************0**************************
*****************************megha********************7 11**************************
0
*************************************************0**************************
0
*************************************************0**************************
0
*************************************************0**************************
0
*************************************************0**************************
0
*************************************************0**************************
0
*************************************************0**************************
0
*************************************************0**************************
0
*************************************************0**************************
*****************************megha********************7 11**************************
0
*************************************************0**************************
0
*************************************************0**************************
*****************************megha********************7 11**************************
0
*************************************************0**************************
0
*************************************************0**************************
0
*************************************************0**************************
*****************************megha********************7 11**************************
0
*************************************************0**************************
0
*************************************************0**************************
0
*************************************************0**************************
0
*************************************************0**************************
*****************************megha********************7 11**************************
0
*************************************************0**************************
0
*************************************************0**************************
0
*************************************************0**************************
0
*************************************************0**************************
0
*************************************************0**************************
0
*************************************************0**************************
0
*************************************************0**************************
0
*************************************************0**************************
0
*************************************************0**************************
0
*************************************************0**************************
0
*************************************************0**************************
0
*************************************************0**************************
0
*************************************************0**************************
0
*************************************************0**************************
0
*************************************************0**************************
0
*************************************************0**************************
0
*************************************************0**************************
0
*************************************************0**************************
0
*************************************************0**************************
0
*************************************************0**************************
0
*************************************************0**************************
0
*************************************************0**************************
0
*************************************************0**************************
0
*************************************************0**************************
0
*************************************************0**************************
0
*************************************************0**************************
0
*************************************************0**************************
0
*************************************************0**************************
0
*************************************************0**************************
0
*************************************************0**************************
0
*************************************************0**************************
0
*************************************************0**************************
0
*************************************************0**************************
0
*************************************************0**************************
0
*************************************************0**************************
0
*************************************************0**************************
0
*************************************************0**************************
*****************************megha********************7 11**************************
0
*************************************************0**************************
0
*************************************************0**************************
0
*************************************************0**************************
0
*************************************************0**************************
0
*************************************************0**************************
0
*************************************************0**************************
0
*************************************************0**************************
0
*************************************************0**************************
0
*************************************************0**************************
0
*************************************************0**************************
0
*************************************************0**************************
0
*************************************************0**************************
0
*************************************************0**************************
0
*************************************************0**************************
0
*************************************************0**************************
0
*************************************************0**************************
0
*************************************************0**************************
0
*************************************************0**************************
0
*************************************************0**************************
0
*************************************************0**************************
0
*************************************************0**************************
0
*************************************************0**************************
0
*************************************************0**************************
0
*************************************************0**************************
0
*************************************************0**************************
0
*************************************************0**************************
*****************************megha********************7 11**************************
0
*************************************************0**************************
0
*************************************************0**************************
0
*************************************************0**************************
0
*************************************************0**************************
0
*************************************************0**************************
0
*************************************************0**************************
0
*************************************************0**************************
0
*************************************************0**************************
0
*************************************************0**************************
0
*************************************************0**************************
0
*************************************************0**************************
0
*************************************************0**************************
0
*************************************************0**************************
0
*************************************************0**************************
0
*************************************************0**************************
0
*************************************************0**************************
0
*************************************************0**************************
0
*************************************************0**************************
0
*************************************************0**************************
0
*************************************************0**************************
0
*************************************************0**************************
0
*************************************************0**************************
0
*************************************************0**************************
0
*************************************************0**************************
*****************************megha********************7 11**************************
0
*************************************************0**************************
0
*************************************************0**************************
0
*************************************************0**************************
0
*************************************************0**************************
0
*************************************************0**************************
0
*************************************************0**************************
0
*************************************************0**************************
0
*************************************************0**************************
0
*************************************************0**************************
0
*************************************************0**************************
0
*************************************************0**************************
0
*************************************************0**************************
0
*************************************************0**************************
0
*************************************************0**************************
0
*************************************************0**************************
0
*************************************************0**************************
0
*************************************************0**************************
0
*************************************************0**************************
0
*************************************************0**************************
*****************************megha********************7 11**************************
0
*************************************************0**************************
0
*************************************************0**************************
0
*************************************************0**************************
0
*************************************************0**************************
0
*************************************************0**************************
*****************************megha********************7 11**************************
*****************************megha********************7 11**************************
0
*************************************************0**************************
0
*************************************************0**************************
0
*************************************************0**************************
0
*************************************************0**************************
0
*************************************************0**************************
0
*************************************************0**************************
0
*************************************************0**************************
0
*************************************************0**************************
0
*************************************************0**************************
0
*************************************************0**************************
*****************************megha********************7 11**************************
0
*************************************************0**************************
0
*************************************************0**************************
0
*************************************************0**************************
0
*************************************************0**************************
0
*************************************************0**************************
0
*************************************************0**************************
0
*************************************************0**************************
0
*************************************************0**************************
0
*************************************************0**************************
0
*************************************************0**************************
0
*************************************************0**************************
0
*************************************************0**************************
0
*************************************************0**************************
0
*************************************************0**************************
0
*************************************************0**************************
0
*************************************************0**************************
0
*************************************************0**************************
0
*************************************************0**************************
0
*************************************************0**************************
0
*************************************************0**************************
0
*************************************************0**************************
0
*************************************************0**************************
0
*************************************************0**************************
0
*************************************************0**************************
0
*************************************************0**************************
0
*************************************************0**************************
0
*************************************************0**************************
0
*************************************************0**************************
0
*************************************************0**************************
0
*************************************************0**************************
0
*************************************************0**************************
0
*************************************************0**************************
0
*************************************************0**************************
0
*************************************************0**************************
0
*************************************************0**************************
0
*************************************************0**************************
0
*************************************************0**************************
0
*************************************************0**************************
0
*************************************************0**************************
0
*************************************************0**************************
0
*************************************************0**************************
0
*************************************************0**************************
0
*************************************************0**************************
0
*************************************************0**************************
0
*************************************************0**************************
0
*************************************************0**************************
0
*************************************************0**************************
0
*************************************************0**************************
0
*************************************************0**************************
0
*************************************************0**************************
0
*************************************************0**************************
0
*************************************************0**************************
0
*************************************************0**************************
0
*************************************************0**************************
0
*************************************************0**************************
0
*************************************************0**************************
0
*************************************************0**************************
*****************************megha********************7 11**************************
0
*************************************************0**************************
0
*************************************************0**************************
0
*************************************************0**************************
0
*************************************************0**************************
0
*************************************************0**************************
*****************************megha********************7 11**************************
0
*************************************************0**************************
0
*************************************************0**************************
0
*************************************************0**************************
0
*************************************************0**************************
0
*************************************************0**************************
0
*************************************************0**************************
0
*************************************************0**************************
0
*************************************************0**************************
0
*************************************************0**************************
0
*************************************************0**************************
0
*************************************************0**************************
0
*************************************************0**************************
0
*************************************************0**************************
0
*************************************************0**************************
0
*************************************************0**************************
0
*************************************************0**************************
0
*************************************************0**************************
0
*************************************************0**************************
0
*************************************************0**************************
0
*************************************************0**************************
0
*************************************************0**************************
0
*************************************************0**************************
0
*************************************************0**************************
0
*************************************************0**************************
0
*************************************************0**************************
0
*************************************************0**************************
0
*************************************************0**************************
0
*************************************************0**************************
0
*************************************************0**************************
0
*************************************************0**************************
0
*************************************************0**************************
0
*************************************************0**************************
0
*************************************************0**************************
0
*************************************************0**************************
0
*************************************************0**************************
0
*************************************************0**************************
0
*************************************************0**************************
0
*************************************************0**************************
0
*************************************************0**************************
0
*************************************************0**************************
0
*************************************************0**************************
0
*************************************************0**************************
0
*************************************************0**************************
0
*************************************************0**************************
0
*************************************************0**************************
0
*************************************************0**************************
0
*************************************************0**************************
0
*************************************************0**************************
0
*************************************************0**************************
0
*************************************************0**************************
0
*************************************************0**************************
0
*************************************************0**************************
0
*************************************************0**************************
0
*************************************************0**************************
0
*************************************************0**************************
0
*************************************************0**************************
0
*************************************************0**************************
0
*************************************************0**************************
0
*************************************************0**************************
0
*************************************************0**************************
0
*************************************************0**************************
0
*************************************************0**************************
0
*************************************************0**************************
0
*************************************************0**************************
*****************************megha********************7 11**************************
0
*************************************************0**************************
0
*************************************************0**************************
0
*************************************************0**************************
0
*************************************************0**************************
0
*************************************************0**************************
0
*************************************************0**************************
0
*************************************************0**************************
0
*************************************************0**************************
0
*************************************************0**************************
0
*************************************************0**************************
0
*************************************************0**************************
0
*************************************************0**************************
0
*************************************************0**************************
0
*************************************************0**************************
0
*************************************************0**************************
0
*************************************************0**************************
0
*************************************************0**************************
0
*************************************************0**************************
0
*************************************************0**************************
0
*************************************************0**************************
0
*************************************************0**************************
0
*************************************************0**************************
0
*************************************************0**************************
0
*************************************************0**************************
0
*************************************************0**************************
0
*************************************************0**************************
0
*************************************************0**************************
0
*************************************************0**************************
0
*************************************************0**************************
0
*************************************************0**************************
0
*************************************************0**************************
0
*************************************************0**************************
0
*************************************************0**************************
0
*************************************************0**************************
0
*************************************************0**************************
0
*************************************************0**************************
0
*************************************************0**************************
0
*************************************************0**************************
0
*************************************************0**************************
0
*************************************************0**************************
0
*************************************************0**************************
0
*************************************************0**************************
0
*************************************************0**************************
0
*************************************************0**************************
0
*************************************************0**************************
0
*************************************************0**************************
0
*************************************************0**************************
0
*************************************************0**************************
0
*************************************************0**************************
0
*************************************************0**************************
0
*************************************************0**************************
0
*************************************************0**************************
0
*************************************************0**************************
*****************************megha********************7 11**************************
0
*************************************************0**************************
0
*************************************************0**************************
0
*************************************************0**************************
0
*************************************************0**************************
0
*************************************************0**************************
0
*************************************************0**************************
0
*************************************************0**************************
0
*************************************************0**************************
0
*************************************************0**************************
0
*************************************************0**************************
0
*************************************************0**************************
0
*************************************************0**************************
0
*************************************************0**************************
0
*************************************************0**************************
0
*************************************************0**************************
0
*************************************************0**************************
*****************************megha********************7 11**************************
0
*************************************************0**************************
0
*************************************************0**************************
0
*************************************************0**************************
0
*************************************************0**************************
0
*************************************************0**************************
0
*************************************************0**************************
0
*************************************************0**************************
0
*************************************************0**************************
0
*************************************************0**************************
0
*************************************************0**************************
0
*************************************************0**************************
0
*************************************************0**************************
0
*************************************************0**************************
0
*************************************************0**************************
0
*************************************************0**************************
0
*************************************************0**************************
0
*************************************************0**************************
0
*************************************************0**************************
0
*************************************************0**************************
0
*************************************************0**************************
0
*************************************************0**************************
0
*************************************************0**************************
0
[...]
*************************************************0**************************
*****************************megha********************7 11**************************
*****************************megha********************7 11**************************
*****************************megha********************7 11**************************
0
*************************************************0**************************
*****************************megha********************7 11**************************
*****************************megha********************7 11**************************
0
*************************************************0**************************
*****************************megha********************7 11**************************
*****************************megha********************7 11**************************
*****************************megha********************7 11**************************
*****************************megha********************7 11**************************
*****************************megha********************7 11**************************
*****************************megha********************7 11**************************
*****************************megha********************7 11**************************
*****************************megha********************7 11**************************
*****************************megha********************7 11**************************
0
*************************************************0**************************
*****************************megha********************7 11**************************
*****************************megha********************4 10**************************
*****************************megha********************4 10**************************
*****************************megha********************7 11**************************
*****************************megha********************4 10**************************
*****************************megha********************7 11**************************
*****************************megha********************7 11**************************
0
*************************************************0**************************
*****************************megha********************7 11**************************
0
*************************************************0**************************
*****************************megha********************7 11**************************
*****************************megha********************7 11**************************
*****************************megha********************7 11**************************
*****************************megha********************7 11**************************
0
*************************************************0**************************
*****************************megha********************7 11**************************
*****************************megha********************7 11**************************
*****************************megha********************7 11**************************
*****************************megha********************7 11**************************
*****************************megha********************7 11**************************
*****************************megha********************7 11**************************
*****************************megha********************7 11**************************
*****************************megha********************7 11**************************
*****************************megha********************7 11**************************
*****************************megha********************7 11**************************
*****************************megha********************7 11**************************
*****************************megha********************7 11**************************
*****************************megha********************7 11**************************
*****************************megha********************7 11**************************
*****************************megha********************7 11**************************
*****************************megha********************7 11**************************
*****************************megha********************7 11**************************
*****************************megha********************7 11**************************
*****************************megha********************7 11**************************
*****************************megha********************7 11**************************
*****************************megha********************7 11**************************
*****************************megha********************7 11**************************
*****************************megha********************7 11**************************
*****************************megha********************7 11**************************
*****************************megha********************4 10**************************
*****************************megha********************7 11**************************
*****************************megha********************7 11**************************
*****************************megha********************4 10**************************
*****************************megha********************7 11**************************
*****************************megha********************7 11**************************
*****************************megha********************7 11**************************
*****************************megha********************7 11**************************
*****************************megha********************7 11**************************
*****************************megha********************7 11**************************
*****************************megha********************7 11**************************
0
*************************************************0**************************
*****************************megha********************7 11**************************
*****************************megha********************7 11**************************
*****************************megha********************7 11**************************
*****************************megha********************7 11**************************
*****************************megha********************7 11**************************
*****************************megha********************7 11**************************
*****************************megha********************7 11**************************
*****************************megha********************7 11**************************
*****************************megha********************7 11**************************
*****************************megha********************7 11**************************
*****************************megha********************7 11**************************
*****************************megha********************7 11**************************
*****************************megha********************7 11**************************
*****************************megha********************6 11**************************
*****************************megha********************4 10**************************
*****************************megha********************7 11**************************
*****************************megha********************4 10**************************
*****************************megha********************7 11**************************
*****************************megha********************7 11**************************
*****************************megha********************7 11**************************
*****************************megha********************7 11**************************
*****************************megha********************7 11**************************
*****************************megha********************7 11**************************
*****************************megha********************7 11**************************
*****************************megha********************7 11**************************
*****************************megha********************7 11**************************
*****************************megha********************7 11**************************
*****************************megha********************6 11**************************
*****************************megha********************7 11**************************
*****************************megha********************7 11**************************
*****************************megha********************7 11**************************
*****************************megha********************7 11**************************
*****************************megha********************7 11**************************
*****************************megha********************7 11**************************
*****************************megha********************7 11**************************
*****************************megha********************7 11**************************
*****************************megha********************7 11**************************
*****************************megha********************7 11**************************
*****************************megha********************7 11**************************
*****************************megha********************7 11**************************
*****************************megha********************7 11**************************
*****************************megha********************7 11**************************
*****************************megha********************7 11**************************
*****************************megha********************7 11**************************
*****************************megha********************7 11**************************
*****************************megha********************5 10**************************
*****************************megha********************7 11**************************
*****************************megha********************7 11**************************
*****************************megha********************7 11**************************
*****************************megha********************7 11**************************
*****************************megha********************7 11**************************
*****************************megha********************7 11**************************
*****************************megha********************7 11**************************
*****************************megha********************7 11**************************
*****************************megha********************7 11**************************
*****************************megha********************7 11**************************
*****************************megha********************7 11**************************
*****************************megha********************7 11**************************
*****************************megha********************7 11**************************
*****************************megha********************3 00**************************
*****************************megha********************7 11**************************
*****************************megha********************7 11**************************
*****************************megha********************7 11**************************
*****************************megha********************7 11**************************
*****************************megha********************3 00**************************
*****************************megha********************7 11**************************
*****************************megha********************7 11**************************
*****************************megha********************7 11**************************
*****************************megha********************7 11**************************
*****************************megha********************7 11**************************
*****************************megha********************3 00**************************
*****************************megha********************7 11**************************
*****************************megha********************7 11**************************
*****************************megha********************7 11**************************
*****************************megha********************7 11**************************
*****************************megha********************7 11**************************
*****************************megha********************7 11**************************
*****************************megha********************7 11**************************
*****************************megha********************3 00**************************
*****************************megha********************7 11**************************
*****************************megha********************3 00**************************
*****************************megha********************7 11**************************
*****************************megha********************7 11**************************
*****************************megha********************7 11**************************
*****************************megha********************3 00**************************
*****************************megha********************7 11**************************
*****************************megha********************7 11**************************
*****************************megha********************7 11**************************
*****************************megha********************7 11**************************
*****************************megha********************7 11**************************
*****************************megha********************7 11**************************
*****************************megha********************3 00**************************
*****************************megha********************3 00**************************
*****************************megha********************7 11**************************
*****************************megha********************3 00**************************
*****************************megha********************5 10**************************
*****************************megha********************7 11**************************
*****************************megha********************7 11**************************
*****************************megha********************7 11**************************
*****************************megha********************3 00**************************
*****************************megha********************7 11**************************
*****************************megha********************7 11**************************
*****************************megha********************7 11**************************
*****************************megha********************7 11**************************
*****************************megha********************7 11**************************
*****************************megha********************3 00**************************
*****************************megha********************7 11**************************
*****************************megha********************3 00**************************
*****************************megha********************7 11**************************
*****************************megha********************7 11**************************
*****************************megha********************7 11**************************
*****************************megha********************7 11**************************
*****************************megha********************7 11**************************
*****************************megha********************3 00**************************
*****************************megha********************7 11**************************
*****************************megha********************7 11**************************
*****************************megha********************7 11**************************
*****************************megha********************7 11**************************
*****************************megha********************7 11**************************
*****************************megha********************7 11**************************
*****************************megha********************7 11**************************
*****************************megha********************7 11**************************
*****************************megha********************7 11**************************
*****************************megha********************7 11**************************
*****************************megha********************7 11**************************
*****************************megha********************7 11**************************
*****************************megha********************3 00**************************
*****************************megha********************7 11**************************
*****************************megha********************7 11**************************
*****************************megha********************3 00**************************
*****************************megha********************7 11**************************
*****************************megha********************7 11**************************
Heartbeat CPU 0 instructions: 20000003 cycles: 11338312 heartbeat IPC: 1.26535 cumulative IPC: 1.26535 (Simulation time: 0 hr 0 min 31 sec) 
Finished CPU 0 instructions: 10000002 cycles: 7902950 cumulative IPC: 1.26535 (Simulation time: 0 hr 0 min 31 sec) 

ChampSim completed all CPUs

Region of Interest Statistics

CPU 0 cumulative IPC: 1.26535 instructions: 10000002 cycles: 7902950
L1D TOTAL     ACCESS:    2801698  HIT:    2626069  MISS:     175629
L1D LOAD      ACCESS:    2122526  HIT:    2090694  MISS:      31832
L1D RFO       ACCESS:     132726  HIT:     127204  MISS:       5522
L1D PREFETCH  ACCESS:     546446  HIT:     408171  MISS:     138275
L1D WRITEBACK ACCESS:          0  HIT:          0  MISS:          0
L1D PREFETCH  REQUESTED:     643848  ISSUED:     620901  USEFUL:     106682  USELESS:      31498
L1D AVERAGE MISS LATENCY: 35.0328 cycles
L1I TOTAL     ACCESS:    1957049  HIT:    1957049  MISS:          0
L1I LOAD      ACCESS:    1957049  HIT:    1957049  MISS:          0
L1I RFO       ACCESS:          0  HIT:          0  MISS:          0
L1I PREFETCH  ACCESS:          0  HIT:          0  MISS:          0
L1I WRITEBACK ACCESS:          0  HIT:          0  MISS:          0
L1I PREFETCH  REQUESTED:          0  ISSUED:          0  USEFUL:          0  USELESS:          0
L1I AVERAGE MISS LATENCY: -nan cycles
L2C TOTAL     ACCESS:     545729  HIT:     397489  MISS:     148240
L2C LOAD      ACCESS:      29995  HIT:      17796  MISS:      12199
L2C RFO       ACCESS:       5520  HIT:        545  MISS:       4975
L2C PREFETCH  ACCESS:     502068  HIT:     371022  MISS:     131046
L2C WRITEBACK ACCESS:       8146  HIT:       8126  MISS:         20
L2C PREFETCH  REQUESTED:     468503  ISSUED:     467824  USEFUL:       3480  USELESS:     125618
L2C AVERAGE MISS LATENCY: 110.036 cycles
LLC TOTAL     ACCESS:     157841  HIT:      60096  MISS:      97745
LLC LOAD      ACCESS:      12186  HIT:       9356  MISS:       2830
LLC RFO       ACCESS:       4975  HIT:       4804  MISS:        171
LLC PREFETCH  ACCESS:     131059  HIT:      36347  MISS:      94712
LLC WRITEBACK ACCESS:       9621  HIT:       9589  MISS:         32
LLC PREFETCH  REQUESTED:          0  ISSUED:          0  USEFUL:        320  USELESS:      95357
LLC AVERAGE MISS LATENCY: 117.558 cycles
Major fault: 0 Minor fault: 2222

OPTgen accesses: 722
OPTgen hits: 502
OPTgen hit rate: 69.5291



DRAM Statistics
 CHANNEL 0
 RQ ROW_BUFFER_HIT:      76960  ROW_BUFFER_MISS:      20752
 DBUS_CONGESTED:      20943
 WQ ROW_BUFFER_HIT:         79  ROW_BUFFER_MISS:        176  FULL:          0

 AVG_CONGESTED_CYCLE: 5

CPU 0 Branch Prediction Accuracy: 95.9551% MPKI: 3.6786 Average ROB Occupancy at Mispredict: 36.8428

Branch types
NOT_BRANCH: 9090571 90.9057%
BRANCH_DIRECT_JUMP: 18299 0.18299%
BRANCH_INDIRECT: 0 0%
BRANCH_CONDITIONAL: 861843 8.61843%
BRANCH_DIRECT_CALL: 14647 0.14647%
BRANCH_INDIRECT_CALL: 0 0%
BRANCH_RETURN: 14647 0.14647%
BRANCH_OTHER: 0 0%

