
*** ChampSim Multicore Out-of-Order Simulator ***

Warmup Instructions: 10000000
Simulation Instructions: 10000000
Number of CPUs: 1
LLC sets: 2048
LLC ways: 16
Off-chip DRAM Size: 4096 MB Channels: 1 Width: 64-bit Data Rate: 3200 MT/s

CPU 0 runs ../traces//623.xalancbmk_s-10B.champsimtrace.xz
CPU 0 Bimodal branch predictor
Initialize Hawkeye state
0
*************************************************0**************************
0
*************************************************0**************************
0
*************************************************0**************************
0
*************************************************0**************************
0
*************************************************0**************************
0
*************************************************0**************************
0
*************************************************0**************************
0
*************************************************0**************************
0
*************************************************0**************************
0
*************************************************0**************************
0
*************************************************0**************************
0
*************************************************0**************************
0
*************************************************0**************************
0
*************************************************0**************************
0
*************************************************0**************************
0
*************************************************0**************************
0
*************************************************0**************************
0
*************************************************0**************************
0
*************************************************0**************************
0
*************************************************0**************************
0
*************************************************0**************************
0
*************************************************0**************************
0
*************************************************0**************************
0
*************************************************0**************************
0
*************************************************0**************************
0
*************************************************0**************************
0
*************************************************0**************************
0
*************************************************0**************************
0
*************************************************0**************************
0
*************************************************0**************************
0
*************************************************0**************************
0
*************************************************0**************************
0
*************************************************0**************************
0
*************************************************0**************************
0
*************************************************0**************************
0
*************************************************0**************************
0
*************************************************0**************************
0
*************************************************0**************************
0
*************************************************0**************************
0
*************************************************0**************************
0
*************************************************0**************************
0
*************************************************0**************************
0
*************************************************0**************************
0
*************************************************0**************************
0
*************************************************0**************************
0
*************************************************0**************************
0
*************************************************0**************************
0
*************************************************0**************************
0
*************************************************0**************************
0
*************************************************0**************************
0
*************************************************0**************************
0
*************************************************0**************************
0
*************************************************0**************************
0
*************************************************0**************************
0
*************************************************0**************************
0
*************************************************0**************************
0
*************************************************0**************************
0
*************************************************0**************************
0
*************************************************0**************************
0
*************************************************0**************************
0
*************************************************0**************************
0
*************************************************0**************************
0
*************************************************0**************************
0
*************************************************0**************************
0
*************************************************0**************************
0
*************************************************0**************************
0
*************************************************0**************************
0
*************************************************0**************************
0
*************************************************0**************************
0
*************************************************0**************************
0
*************************************************0**************************
0
*************************************************0**************************
0
*************************************************0**************************
0
*************************************************0**************************
0
*************************************************0**************************
0
*************************************************0**************************
0
*************************************************0**************************
0
*************************************************0**************************
0
*************************************************0**************************
0
*************************************************0**************************
0
*************************************************0**************************
0
*************************************************0**************************
0
*************************************************0**************************
0
*************************************************0**************************
0
*************************************************0**************************
0
*************************************************0**************************
0
*************************************************0**************************
0
*************************************************0**************************
0
*************************************************0**************************
0
*************************************************0**************************
0
*************************************************0**************************
0
*************************************************0**************************
0
*************************************************0**************************
0
*************************************************0**************************
0
*************************************************0**************************
0
*************************************************0**************************
0
*************************************************0**************************
0
*************************************************0**************************
0
*************************************************0**************************
0
*************************************************0**************************
0
*************************************************0**************************
0
*************************************************0**************************
0
*************************************************0**************************
0
*************************************************0**************************
0
*************************************************0**************************
0
*************************************************0**************************
0
*************************************************0**************************
0
*************************************************0**************************
0
*************************************************0**************************
0
*************************************************0**************************
0
*************************************************0**************************
0
*************************************************0**************************
0
*************************************************0**************************
0
*************************************************0**************************
0
*************************************************0**************************
0
*************************************************0**************************
0
*************************************************0**************************
0
*************************************************0**************************
0
*************************************************0**************************
0
*************************************************0**************************
0
*************************************************0**************************
0
*************************************************0**************************
0
*************************************************0**************************
0
*************************************************0**************************
0
*************************************************0**************************
0
*************************************************0**************************
0
*************************************************0**************************
0
*************************************************0**************************
0
*************************************************0**************************
0
*************************************************0**************************
0
*************************************************0**************************
0
*************************************************0**************************
0
*************************************************0**************************
0
*************************************************0**************************
0
*************************************************0**************************
0
*************************************************0**************************
0
*************************************************0**************************
0
*************************************************0**************************
0
*************************************************0**************************
0
*************************************************0**************************
0
*************************************************0**************************
0
*************************************************0**************************
0
*************************************************0**************************
0
*************************************************0**************************
0
*************************************************0**************************
0
*************************************************0**************************
0
*************************************************0**************************
0
*************************************************0**************************
0
*************************************************0**************************
0
*************************************************0**************************
0
*************************************************0**************************
0
*************************************************0**************************
0
*************************************************0**************************
0
*************************************************0**************************
0
*************************************************0**************************
0
*************************************************0**************************
0
*************************************************0**************************
0
*************************************************0**************************
0
*************************************************0**************************
0
*************************************************0**************************
0
*************************************************0**************************
0
*************************************************0**************************
0
*************************************************0**************************
0
*************************************************0**************************
0
*************************************************0**************************
0
*************************************************0**************************
0
*************************************************0**************************
0
*************************************************0**************************
0
*************************************************0**************************
0
*************************************************0**************************
0
*************************************************0**************************
0
*************************************************0**************************
0
*************************************************0**************************
0
*************************************************0**************************
0
*************************************************0**************************
0
*************************************************0**************************
0
*************************************************0**************************
0
*************************************************0**************************
0
*************************************************0**************************
0
*************************************************0**************************
0
*************************************************0**************************
0
*************************************************0**************************
0
*************************************************0**************************
0
*************************************************0**************************
0
*************************************************0**************************
0
*************************************************0**************************
0
*************************************************0**************************
0
*************************************************0**************************
0
*************************************************0**************************
0
*************************************************0**************************
0
*************************************************0**************************
0
*************************************************0**************************
0
*************************************************0**************************
0
*************************************************0**************************
0
*************************************************0**************************
0
*************************************************0**************************
0
*************************************************0**************************
0
*************************************************0**************************
0
*************************************************0**************************
0
*************************************************0**************************
0
*************************************************0**************************
0
*************************************************0**************************
0
*************************************************0**************************
0
*************************************************0**************************
0
*************************************************0**************************
0
*************************************************0**************************
0
*************************************************0**************************
0
*************************************************0**************************
0
*************************************************0**************************
0
*************************************************0**************************
0
*************************************************0**************************
0
*************************************************0**************************
0
*************************************************0**************************
0
*************************************************0**************************
0
*************************************************0**************************
0
*************************************************0**************************
0
*************************************************0**************************
0
*************************************************0**************************
0
*************************************************0**************************
0
*************************************************0**************************
0
*************************************************0**************************
0
*************************************************0**************************
0
*************************************************0**************************
0
*************************************************0**************************
0
*************************************************0**************************
0
*************************************************0**************************
0
*************************************************0**************************
0
*************************************************0**************************
0
*************************************************0**************************
0
*************************************************0**************************
0
*************************************************0**************************
0
*************************************************0**************************
0
*************************************************0**************************
0
*************************************************0**************************
0
*************************************************0**************************
0
*************************************************0**************************
0
*************************************************0**************************
0
*************************************************0**************************
0
*************************************************0**************************
0
*************************************************0**************************
0
*************************************************0**************************
0
*************************************************0**************************
0
*************************************************0**************************
0
*************************************************0**************************
0
*************************************************0**************************
0
*************************************************0**************************
0
*************************************************0**************************
0
*************************************************0**************************
0
*************************************************0**************************
0
*************************************************0**************************
0
*************************************************0**************************
0
*************************************************0**************************
0
*************************************************0**************************
0
*************************************************0**************************
0
*************************************************0**************************
0
*************************************************0**************************
0
*************************************************0**************************
0
*************************************************0**************************
0
*************************************************0**************************
0
*************************************************0**************************
0
*************************************************0**************************
0
*************************************************0**************************
0
*************************************************0**************************
0
*************************************************0**************************
0
*************************************************0**************************
0
*************************************************0**************************
0
*************************************************0**************************
0
*************************************************0**************************
0
*************************************************0**************************
0
*************************************************0**************************
0
*************************************************0**************************
0
*************************************************0**************************
0
*************************************************0**************************
0
*************************************************0**************************
0
*************************************************0**************************
0
*************************************************0**************************
0
*************************************************0**************************
0
*************************************************0**************************
0
*************************************************0**************************
0
*************************************************0**************************
0
*************************************************0**************************
0
*************************************************0**************************
0
*************************************************0**************************
0
*************************************************0**************************
0
*************************************************0**************************
0
*************************************************0**************************
0
*************************************************0**************************
0
*************************************************0**************************
0
*************************************************0**************************
0
*************************************************0**************************
0
*************************************************0**************************
0
*************************************************0**************************
0
*************************************************0**************************
0
*************************************************0**************************
0
*************************************************0**************************
0
*************************************************0**************************
0
*************************************************0**************************
0
*************************************************0**************************
0
*************************************************0**************************
0
*************************************************0**************************
0
*************************************************0**************************
0
*************************************************0**************************
0
*************************************************0**************************
0
*************************************************0**************************
0
*************************************************0**************************
0
*************************************************0**************************
0
*************************************************0**************************
0
*************************************************0**************************
0
*************************************************0**************************
0
*************************************************0**************************
0
*************************************************0**************************
0
*************************************************0**************************
0
*************************************************0**************************
0
*************************************************0**************************
0
*************************************************0**************************
0
*************************************************0**************************
0
*************************************************0**************************
0
*************************************************0**************************
0
*************************************************0**************************
0
*************************************************0**************************
0
*************************************************0**************************
0
*************************************************0**************************
0
*************************************************0**************************
0
*************************************************0**************************
0
*************************************************0**************************
0
*************************************************0**************************
0
*************************************************0**************************
0
*************************************************0**************************
0
*************************************************0**************************
0
*************************************************0**************************
0
*************************************************0**************************
0
*************************************************0**************************
0
*************************************************0**************************
0
*************************************************0**************************
0
*************************************************0**************************
0
*************************************************0**************************
0
*************************************************0**************************
0
*************************************************0**************************
0
*************************************************0**************************
0
*************************************************0**************************
0
*************************************************0**************************
0
*************************************************0**************************
0
*************************************************0**************************
0
*************************************************0**************************
0
*************************************************0**************************
0
*************************************************0**************************
0
*************************************************0**************************
0
*************************************************0**************************
0
*************************************************0**************************
0
*************************************************0**************************
0
*************************************************0**************************
0
*************************************************0**************************
0
*************************************************0**************************
0
*************************************************0**************************
0
*************************************************0**************************
0
*************************************************0**************************
0
*************************************************0**************************
0
*************************************************0**************************
0
*************************************************0**************************
0
*************************************************0**************************
0
*************************************************0**************************
0
*************************************************0**************************
0
*************************************************0**************************
0
*************************************************0**************************
0
*************************************************0**************************
0
*************************************************0**************************
0
*************************************************0**************************
0
*************************************************0**************************
0
*************************************************0**************************
0
*************************************************0**************************
0
*************************************************0**************************
0
*************************************************0**************************
0
*************************************************0**************************
0
*************************************************0**************************
0
*************************************************0**************************
0
*************************************************0**************************
0
*************************************************0**************************
0
*************************************************0**************************
0
*************************************************0**************************
0
*************************************************0**************************
0
*************************************************0**************************
0
*************************************************0**************************
0
*************************************************0**************************
0
*************************************************0**************************
0
*************************************************0**************************
0
*************************************************0**************************
0
*************************************************0**************************
0
*************************************************0**************************
0
*************************************************0**************************
0
*************************************************0**************************
0
*************************************************0**************************
0
*************************************************0**************************
0
*************************************************0**************************
0
*************************************************0**************************
0
*************************************************0**************************
0
*************************************************0**************************
0
*************************************************0**************************
0
*************************************************0**************************
0
*************************************************0**************************
0
*************************************************0**************************
0
*************************************************0**************************
0
*************************************************0**************************
0
*************************************************0**************************
0
*************************************************0**************************
0
*************************************************0**************************
0
*************************************************0**************************
0
*************************************************0**************************
0
*************************************************0**************************
0
*************************************************0**************************
0
*************************************************0**************************
0
*************************************************0**************************
0
*************************************************0**************************
0
*************************************************0**************************
0
*************************************************0**************************
0
*************************************************0**************************
0
*************************************************0**************************
0
*************************************************0**************************
0
*************************************************0**************************
0
*************************************************0**************************
0
*************************************************0**************************
0
*************************************************0**************************
0
*************************************************0**************************
0
*************************************************0**************************
0
*************************************************0**************************
0
*************************************************0**************************
0
*************************************************0**************************
0
*************************************************0**************************
0
*************************************************0**************************
0
*************************************************0**************************
0
*************************************************0**************************
0
*************************************************0**************************
0
*************************************************0**************************
0
*************************************************0**************************
0
*************************************************0**************************
0
*************************************************0**************************
0
*************************************************0**************************
0
*************************************************0**************************
*****************************megha********************7 11**************************
0
*************************************************0**************************
0
*************************************************0**************************
0
*************************************************0**************************
0
*************************************************0**************************
0
*************************************************0**************************
0
*************************************************0**************************
0
*************************************************0**************************
0
*************************************************0**************************
0
*************************************************0**************************
0
*************************************************0**************************
0
*************************************************0**************************
0
*************************************************0**************************
0
*************************************************0**************************
0
*************************************************0**************************
0
*************************************************0**************************
0
*************************************************0**************************
0
*************************************************0**************************
0
*************************************************0**************************
0
*************************************************0**************************
0
*************************************************0**************************
0
*************************************************0**************************
0
*************************************************0**************************
0
*************************************************0**************************
0
*************************************************0**************************
0
*************************************************0**************************
0
*************************************************0**************************
0
*************************************************0**************************
0
*************************************************0**************************
0
*************************************************0**************************
0
*************************************************0**************************
0
*************************************************0**************************
0
*************************************************0**************************
0
*************************************************0**************************
0
*************************************************0**************************
0
*************************************************0**************************
0
*************************************************0**************************
0
*************************************************0**************************
0
*************************************************0**************************
0
*************************************************0**************************
0
*************************************************0**************************
0
*************************************************0**************************
0
*************************************************0**************************
*****************************megha********************7 11**************************
0
*************************************************0**************************
*****************************megha********************7 11**************************
0
*************************************************0**************************
0
*************************************************0**************************
0
*************************************************0**************************
0
*************************************************0**************************
0
*************************************************0**************************
0
*************************************************0**************************
0
*************************************************0**************************
0
*************************************************0**************************
0
*************************************************0**************************
0
*************************************************0**************************
0
*************************************************0**************************
0
*************************************************0**************************
0
*************************************************0**************************
0
*************************************************0**************************
0
*************************************************0**************************
0
*************************************************0**************************
0
*************************************************0**************************
0
*************************************************0**************************
0
*************************************************0**************************
0
*************************************************0**************************
0
*************************************************0**************************
0
*************************************************0**************************
0
*************************************************0**************************
0
*************************************************0**************************
0
*************************************************0**************************
0
*************************************************0**************************
0
*************************************************0**************************
0
*************************************************0**************************
0
*************************************************0**************************
0
*************************************************0**************************
0
*************************************************0**************************
0
*************************************************0**************************
0
*************************************************0**************************
0
*************************************************0**************************
0
*************************************************0**************************
0
*************************************************0**************************
0
*************************************************0**************************
0
*************************************************0**************************
0
*************************************************0**************************
0
*************************************************0**************************
0
*************************************************0**************************
0
*************************************************0**************************
0
*************************************************0**************************
0
*************************************************0**************************
0
*************************************************0**************************
0
*************************************************0**************************
0
*************************************************0**************************
0
*************************************************0**************************
0
*************************************************0**************************
0
*************************************************0**************************
0
*************************************************0**************************
0
*************************************************0**************************
0
*************************************************0**************************
0
*************************************************0**************************
0
*************************************************0**************************
0
*************************************************0**************************
0
*************************************************0**************************
0
*************************************************0**************************
0
*************************************************0**************************
0
*************************************************0**************************
0
*************************************************0**************************
0
*************************************************0**************************
0
*************************************************0**************************
0
*************************************************0**************************
0
*************************************************0**************************
0
*************************************************0**************************
0
*************************************************0**************************
0
*************************************************0**************************
0
*************************************************0**************************
0
*************************************************0**************************
0
*************************************************0**************************
0
*************************************************0**************************
0
*************************************************0**************************
0
*************************************************0**************************
0
*************************************************0**************************
0
*************************************************0**************************
0
*************************************************0**************************
0
*************************************************0**************************
0
*************************************************0**************************
0
*************************************************0**************************
0
*************************************************0**************************
*****************************megha********************7 11**************************
0
*************************************************0**************************
0
*************************************************0**************************
0
*************************************************0**************************
0
*************************************************0**************************
0
*************************************************0**************************
0
*************************************************0**************************
0
*************************************************0**************************
0
*************************************************0**************************
0
*************************************************0**************************
0
*************************************************0**************************
0
*************************************************0**************************
0
*************************************************0**************************
0
*************************************************0**************************
0
*************************************************0**************************
0
*************************************************0**************************
0
*************************************************0**************************
0
*************************************************0**************************
0
*************************************************0**************************
0
*************************************************0**************************
0
*************************************************0**************************
0
*************************************************0**************************
0
*************************************************0**************************
0
*************************************************0**************************
0
*************************************************0**************************
0
*************************************************0**************************
0
*************************************************0**************************
0
*************************************************0**************************
0
*************************************************0**************************
0
*************************************************0**************************
0
*************************************************0**************************
0
*************************************************0**************************
0
*************************************************0**************************
0
*************************************************0**************************
0
*************************************************0**************************
0
*************************************************0**************************
0
*************************************************0**************************
0
*************************************************0**************************
0
*************************************************0**************************
0
*************************************************0**************************
0
*************************************************0**************************
0
*************************************************0**************************
0
*************************************************0**************************
0
*************************************************0**************************
0
*************************************************0**************************
0
*************************************************0**************************
0
*************************************************0**************************
0
*************************************************0**************************
0
*************************************************0**************************
0
*************************************************0**************************
0
*************************************************0**************************
0
*************************************************0**************************
0
*************************************************0**************************
0
*************************************************0**************************
0
*************************************************0**************************
0
*************************************************0**************************
0
*************************************************0**************************
0
*************************************************0**************************
0
*************************************************0**************************
0
*************************************************0**************************
0
*************************************************0**************************
0
*************************************************0**************************
0
*************************************************0**************************
0
*************************************************0**************************
0
*************************************************0**************************
0
*************************************************0**************************
0
*************************************************0**************************
0
*************************************************0**************************
0
*************************************************0**************************
0
*************************************************0**************************
0
*************************************************0**************************
0
*************************************************0**************************
0
*************************************************0**************************
0
*************************************************0**************************
0
*************************************************0**************************
*****************************megha********************7 11**************************
0
*************************************************0**************************
0
*************************************************0**************************
0
*************************************************0**************************
0
*************************************************0**************************
0
*************************************************0**************************
0
*************************************************0**************************
0
*************************************************0**************************
0
*************************************************0**************************
0
*************************************************0**************************
0
*************************************************0**************************
0
*************************************************0**************************
0
*************************************************0**************************
0
*************************************************0**************************
0
*************************************************0**************************
0
*************************************************0**************************
0
*************************************************0**************************
0
*************************************************0**************************
0
*************************************************0**************************
0
*************************************************0**************************
0
*************************************************0**************************
0
*************************************************0**************************
0
*************************************************0**************************
0
*************************************************0**************************
0
*************************************************0**************************
0
*************************************************0**************************
0
*************************************************0**************************
0
*************************************************0**************************
0
*************************************************0**************************
0
*************************************************0**************************
0
*************************************************0**************************
0
*************************************************0**************************
0
*************************************************0**************************
0
*************************************************0**************************
0
*************************************************0**************************
0
*************************************************0**************************
0
*************************************************0**************************
0
*************************************************0**************************
0
*************************************************0**************************
0
*************************************************0**************************
0
*************************************************0**************************
0
*************************************************0**************************
0
*************************************************0**************************
0
*************************************************0**************************
0
*************************************************0**************************
0
*************************************************0**************************
0
*************************************************0**************************
0
*************************************************0**************************
0
*************************************************0**************************
0
*************************************************0**************************
0
*************************************************0**************************
0
*************************************************0**************************
0
*************************************************0**************************
0
*************************************************0**************************
0
*************************************************0**************************
0
*************************************************0**************************
0
*************************************************0**************************
0
*************************************************0**************************
0
*************************************************0**************************
0
*************************************************0**************************
0
*************************************************0**************************
0
*************************************************0**************************
0
*************************************************0**************************
0
*************************************************0**************************
0
*************************************************0**************************
0
*************************************************0**************************
0
*************************************************0**************************
0
*************************************************0**************************
*****************************megha********************7 11**************************
0
*************************************************0**************************
0
*************************************************0**************************
0
*************************************************0**************************
0
*************************************************0**************************
0
*************************************************0**************************
0
*************************************************0**************************
0
*************************************************0**************************
0
*************************************************0**************************
0
*************************************************0**************************
0
*************************************************0**************************
0
*************************************************0**************************
0
*************************************************0**************************
0
*************************************************0**************************
0
*************************************************0**************************
0
*************************************************0**************************
0
*************************************************0**************************
0
*************************************************0**************************
0
*************************************************0**************************
0
*************************************************0**************************
0
*************************************************0**************************
0
*************************************************0**************************
0
*************************************************0**************************
0
*************************************************0**************************
0
*************************************************0**************************
0
*************************************************0**************************
0
*************************************************0**************************
0
*************************************************0**************************
0
*************************************************0**************************
0
*************************************************0**************************
*****************************megha********************7 11**************************
0
*************************************************0**************************
0
*************************************************0**************************
0
*************************************************0**************************
0
*************************************************0**************************
0
*************************************************0**************************
0
*************************************************0**************************
0
*************************************************0**************************
0
*************************************************0**************************
0
*************************************************0**************************
0
*************************************************0**************************
0
*************************************************0**************************
0
*************************************************0**************************
0
*************************************************0**************************
0
*************************************************0**************************
0
*************************************************0**************************
0
*************************************************0**************************
0
*************************************************0**************************
0
*************************************************0**************************
0
*************************************************0**************************
0
*************************************************0**************************
0
*************************************************0**************************
0
*************************************************0**************************
0
*************************************************0**************************
0
*************************************************0**************************
0
*************************************************0**************************
0
*************************************************0**************************
0
*************************************************0**************************
0
*************************************************0**************************
0
*************************************************0**************************
0
*************************************************0**************************
0
*************************************************0**************************
0
*************************************************0**************************
0
*************************************************0**************************
0
*************************************************0**************************
0
*************************************************0**************************
0
*************************************************0**************************
0
*************************************************0**************************
0
*************************************************0**************************
0
*************************************************0**************************
0
*************************************************0**************************
0
*************************************************0**************************
0
*************************************************0**************************
0
*************************************************0**************************
0
*************************************************0**************************
0
*************************************************0**************************
0
*************************************************0**************************
0
*************************************************0**************************
0
*************************************************0**************************
0
*************************************************0**************************
0
*************************************************0**************************
0
*************************************************0**************************
0
*************************************************0**************************
0
*************************************************0**************************
0
*************************************************0**************************
0
*************************************************0**************************
0
*************************************************0**************************
0
*************************************************0**************************
0
*************************************************0**************************
0
*************************************************0**************************
0
*************************************************0**************************
0
*************************************************0**************************
0
*************************************************0**************************
0
*************************************************0**************************
0
*************************************************0**************************
0
*************************************************0**************************
0
*************************************************0**************************
0
*************************************************0**************************
0
*************************************************0**************************
0
*************************************************0**************************
0
*************************************************0**************************
0
*************************************************0**************************
0
*************************************************0**************************
0
*************************************************0**************************
0
*************************************************0**************************
0
*************************************************0**************************
0
*************************************************0**************************
0
*************************************************0**************************
0
*************************************************0**************************
0
*************************************************0**************************
0
*************************************************0**************************
0
*************************************************0**************************
0
*************************************************0**************************
0
*************************************************0**************************
0
*************************************************0**************************
0
*************************************************0**************************
0
*************************************************0**************************
0
*************************************************0**************************
0
*************************************************0**************************
0
*************************************************0**************************
0
*************************************************0**************************
0
*************************************************0**************************
0
*************************************************0**************************
0
*************************************************0**************************
0
*************************************************0**************************
0
*************************************************0**************************
0
*************************************************0**************************
0
*************************************************0**************************
0
*************************************************0**************************
0
*************************************************0**************************
0
*************************************************0**************************
0
*************************************************0**************************
0
*************************************************0**************************
0
*************************************************0**************************
0
*************************************************0**************************
0
*************************************************0**************************
0
*************************************************0**************************
0
*************************************************0**************************
0
*************************************************0**************************
0
*************************************************0**************************
0
*************************************************0**************************
0
*************************************************0**************************
0
*************************************************0**************************
0
*************************************************0**************************
0
*************************************************0**************************
*****************************megha********************7 11**************************
*****************************megha********************7 11**************************
*****************************megha********************7 11**************************
*****************************megha********************7 11**************************
*****************************megha********************7 11**************************
*****************************megha********************7 11**************************
*****************************megha********************7 11**************************
*****************************megha********************7 11**************************
*****************************megha********************7 11**************************
*****************************megha********************7 11**************************
*****************************megha********************7 11**************************
*****************************megha********************7 11**************************
*****************************megha********************7 11**************************
*****************************megha********************7 11**************************
*****************************megha********************7 11**************************
*****************************megha********************7 11**************************
*****************************megha********************7 11**************************
*****************************megha********************7 11**************************
*****************************megha********************7 11**************************
*****************************megha********************7 11**************************
*****************************megha********************7 11**************************
*****************************megha********************7 11**************************
*****************************megha********************7 11**************************
*****************************megha********************7 11**************************
*****************************megha********************7 11**************************
*****************************megha********************7 11**************************
*****************************megha********************7 11**************************
*****************************megha********************7 11**************************
*****************************megha********************7 11**************************
*****************************megha********************7 11**************************
*****************************megha********************7 11**************************
*****************************megha********************7 11**************************
*****************************megha********************7 11**************************
*****************************megha********************7 11**************************
*****************************megha********************7 11**************************
*****************************megha********************7 11**************************
*****************************megha********************7 11**************************
*****************************megha********************7 11**************************
*****************************megha********************7 11**************************
*****************************megha********************7 11**************************
*****************************megha********************7 11**************************
*****************************megha********************7 11**************************
*****************************megha********************7 11**************************
*****************************megha********************7 11**************************
0
*************************************************0**************************
*****************************megha********************7 11**************************
*****************************megha********************7 11**************************
*****************************megha********************7 11**************************
*****************************megha********************7 11**************************
*****************************megha********************7 11**************************
*****************************megha********************7 11**************************
*****************************megha********************7 11**************************
*****************************megha********************7 11**************************
*****************************megha********************7 11**************************
*****************************megha********************7 11**************************
*****************************megha********************7 11**************************
*****************************megha********************7 11**************************
*****************************megha********************7 11**************************
*****************************megha********************7 11**************************
0
*************************************************0**************************
*****************************megha********************7 11**************************
*****************************megha********************7 11**************************
*****************************megha********************7 11**************************
*****************************megha********************7 11**************************
*****************************megha********************7 11**************************
*****************************megha********************7 11**************************
*****************************megha********************7 11**************************
*****************************megha********************7 11**************************
*****************************megha********************7 11**************************
*****************************megha********************7 11**************************
*****************************megha********************7 11**************************
*****************************megha********************7 11**************************
*****************************megha********************7 11**************************
*****************************megha********************7 11**************************
*****************************megha********************7 11**************************
*****************************megha********************7 11**************************
*****************************megha********************7 11**************************
*****************************megha********************7 11**************************
0
*************************************************0**************************
*****************************megha********************7 11**************************
*****************************megha********************7 11**************************
*****************************megha********************7 11**************************
*****************************megha********************7 11**************************
0
*************************************************0**************************
0
*************************************************0**************************
*****************************megha********************7 11**************************
*****************************megha********************7 11**************************
*****************************megha********************7 11**************************
*****************************megha********************7 11**************************
*****************************megha********************7 11**************************
*****************************megha********************7 11**************************
*****************************megha********************7 11**************************
*****************************megha********************7 11**************************
*****************************megha********************7 11**************************
*****************************megha********************7 11**************************
*****************************megha********************7 11**************************
*****************************megha********************7 11**************************
*****************************megha********************7 11**************************
*****************************megha********************7 11**************************
*****************************megha********************7 11**************************
*****************************megha********************7 11**************************
*****************************megha********************7 11**************************
*****************************megha********************7 11**************************
*****************************megha********************7 11**************************
*****************************megha********************7 11**************************
*****************************megha********************7 11**************************
*****************************megha********************7 11**************************
*****************************megha********************7 11**************************
*****************************megha********************7 11**************************
*****************************megha********************7 11**************************
*****************************megha********************7 11**************************
*****************************megha********************7 11**************************
*****************************megha********************7 11**************************
*****************************megha********************7 11**************************
*****************************megha********************7 11**************************
*****************************megha********************7 11**************************
*****************************megha********************7 11**************************
*****************************megha********************7 11**************************
*****************************megha********************7 11**************************
*****************************megha********************7 11**************************
*****************************megha********************7 11**************************
*****************************megha********************7 11**************************
*****************************megha********************7 11**************************
*****************************megha********************7 11**************************
*****************************megha********************7 11**************************
*****************************megha********************7 11**************************
*****************************megha********************7 11**************************
*****************************megha********************7 11**************************
*****************************megha********************7 11**************************
*****************************megha********************7 11**************************
*****************************megha********************7 11**************************
*****************************megha********************7 11**************************
*****************************megha********************7 11**************************
*****************************megha********************7 11**************************
*****************************megha********************7 11**************************
*****************************megha********************7 11**************************
*****************************megha********************7 11**************************
0
*************************************************0**************************
*****************************megha********************7 11**************************
0
*************************************************0**************************
*****************************megha********************7 11**************************
*****************************megha********************7 11**************************
*****************************megha********************7 11**************************
*****************************megha********************7 11**************************
*****************************megha********************7 11**************************
[...]
*****************************megha********************7 11**************************
0
*************************************************0**************************
0
*************************************************0**************************
0
*************************************************0**************************
*****************************megha********************7 11**************************
*****************************megha********************7 11**************************
*****************************megha********************7 11**************************
*****************************megha********************7 11**************************
*****************************megha********************7 11**************************
*****************************megha********************7 11**************************
*****************************megha********************7 11**************************
*****************************megha********************7 11**************************
*****************************megha********************4 10**************************
*****************************megha********************7 11**************************
*****************************megha********************7 11**************************
*****************************megha********************7 11**************************
*****************************megha********************7 11**************************
*****************************megha********************7 11**************************
0
*************************************************0**************************
*****************************megha********************4 10**************************
*****************************megha********************7 11**************************
*****************************megha********************7 11**************************
*****************************megha********************7 11**************************
*****************************megha********************7 11**************************
*****************************megha********************7 11**************************
*****************************megha********************0 00**************************
*****************************megha********************7 11**************************
*****************************megha********************5 11**************************
0
*************************************************0**************************
*****************************megha********************7 11**************************
*****************************megha********************7 11**************************
*****************************megha********************7 11**************************
*****************************megha********************2 00**************************
*****************************megha********************7 11**************************
*****************************megha********************6 11**************************
*****************************megha********************7 11**************************
*****************************megha********************3 00**************************
*****************************megha********************7 11**************************
*****************************megha********************5 10**************************
*****************************megha********************7 11**************************
*****************************megha********************4 10**************************
*****************************megha********************6 11**************************
*****************************megha********************7 11**************************
*****************************megha********************4 10**************************
*****************************megha********************7 11**************************
*****************************megha********************1 00**************************
*****************************megha********************7 11**************************
*****************************megha********************7 11**************************
*****************************megha********************3 00**************************
*****************************megha********************4 10**************************
*****************************megha********************7 11**************************
*****************************megha********************7 11**************************
*****************************megha********************7 11**************************
*****************************megha********************2 00**************************
*****************************megha********************7 11**************************
*****************************megha********************5 10**************************
*****************************megha********************7 11**************************
*****************************megha********************7 11**************************
*****************************megha********************7 11**************************
0
*************************************************0**************************
*****************************megha********************7 11**************************
*****************************megha********************4 10**************************
*****************************megha********************4 10**************************
*****************************megha********************4 10**************************
*****************************megha********************2 00**************************
*****************************megha********************7 11**************************
*****************************megha********************6 11**************************
0
*************************************************0**************************
*****************************megha********************5 10**************************
*****************************megha********************5 10**************************
*****************************megha********************7 11**************************
*****************************megha********************2 00**************************
*****************************megha********************7 11**************************
*****************************megha********************5 10**************************
*****************************megha********************4 10**************************
*****************************megha********************4 11**************************
*****************************megha********************6 11**************************
*****************************megha********************7 11**************************
*****************************megha********************7 11**************************
*****************************megha********************6 11**************************
*****************************megha********************5 10**************************
0
*************************************************0**************************
*****************************megha********************4 10**************************
*****************************megha********************6 11**************************
*****************************megha********************7 11**************************
*****************************megha********************5 10**************************
*****************************megha********************3 00**************************
*****************************megha********************2 00**************************
*****************************megha********************5 10**************************
0
*************************************************0**************************
*****************************megha********************7 11**************************
*****************************megha********************7 11**************************
*****************************megha********************7 11**************************
*****************************megha********************7 11**************************
*****************************megha********************5 10**************************
0
*************************************************0**************************
*****************************megha********************7 11**************************
*****************************megha********************6 11**************************
*****************************megha********************4 10**************************
*****************************megha********************7 11**************************
*****************************megha********************1 00**************************
*****************************megha********************4 10**************************
*****************************megha********************6 11**************************
*****************************megha********************4 10**************************
*****************************megha********************7 11**************************
*****************************megha********************7 11**************************
0
*************************************************0**************************
*****************************megha********************7 11**************************
*****************************megha********************7 11**************************
*****************************megha********************7 11**************************
*****************************megha********************7 11**************************
*****************************megha********************4 10**************************
*****************************megha********************2 01**************************
*****************************megha********************2 00**************************
*****************************megha********************5 10**************************
*****************************megha********************7 11**************************
*****************************megha********************7 11**************************
*****************************megha********************7 11**************************
*****************************megha********************5 10**************************
*****************************megha********************4 10**************************
*****************************megha********************4 10**************************
0
*************************************************0**************************
*****************************megha********************4 10**************************
*****************************megha********************7 11**************************
*****************************megha********************4 10**************************
0
*************************************************0**************************
*****************************megha********************6 11**************************
*****************************megha********************6 11**************************
*****************************megha********************7 11**************************
*****************************megha********************5 10**************************
*****************************megha********************5 10**************************
*****************************megha********************1 00**************************
*****************************megha********************7 11**************************
*****************************megha********************5 11**************************
*****************************megha********************7 11**************************
*****************************megha********************7 11**************************
*****************************megha********************6 11**************************
*****************************megha********************5 10**************************
*****************************megha********************4 10**************************
*****************************megha********************4 10**************************
*****************************megha********************7 11**************************
*****************************megha********************2 00**************************
0
*************************************************0**************************
*****************************megha********************7 11**************************
0
*************************************************0**************************
*****************************megha********************2 00**************************
*****************************megha********************7 11**************************
*****************************megha********************4 10**************************
*****************************megha********************2 01**************************
*****************************megha********************2 01**************************
*****************************megha********************6 11**************************
*****************************megha********************7 11**************************
*****************************megha********************2 01**************************
*****************************megha********************0 00**************************
*****************************megha********************0 00**************************
*****************************megha********************7 11**************************
*****************************megha********************6 11**************************
*****************************megha********************4 11**************************
*****************************megha********************4 10**************************
*****************************megha********************0 00**************************
*****************************megha********************7 11**************************
*****************************megha********************4 10**************************
*****************************megha********************0 00**************************
0
*************************************************0**************************
*****************************megha********************7 11**************************
*****************************megha********************7 11**************************
*****************************megha********************5 10**************************
*****************************megha********************7 11**************************
*****************************megha********************7 11**************************
*****************************megha********************7 11**************************
*****************************megha********************7 11**************************
*****************************megha********************7 11**************************
*****************************megha********************7 11**************************
*****************************megha********************4 10**************************
0
*************************************************0**************************
0
*************************************************0**************************
*****************************megha********************7 11**************************
*****************************megha********************7 11**************************
*****************************megha********************7 11**************************
*****************************megha********************7 11**************************
*****************************megha********************7 11**************************
*****************************megha********************7 11**************************
*****************************megha********************7 11**************************
*****************************megha********************7 11**************************
*****************************megha********************7 11**************************
*****************************megha********************7 11**************************
*****************************megha********************7 11**************************
*****************************megha********************7 11**************************
*****************************megha********************7 11**************************
*****************************megha********************5 10**************************
*****************************megha********************7 11**************************
*****************************megha********************7 11**************************
*****************************megha********************5 10**************************
0
*************************************************0**************************
*****************************megha********************7 11**************************
*****************************megha********************7 11**************************
0
*************************************************0**************************
*****************************megha********************3 00**************************
*****************************megha********************7 11**************************
*****************************megha********************7 11**************************
*****************************megha********************7 11**************************
Heartbeat CPU 0 instructions: 20000000 cycles: 33895066 heartbeat IPC: 0.336095 cumulative IPC: 0.336095 (Simulation time: 0 hr 0 min 45 sec) 
Finished CPU 0 instructions: 10000000 cycles: 29753523 cumulative IPC: 0.336095 (Simulation time: 0 hr 0 min 45 sec) 

ChampSim completed all CPUs

Region of Interest Statistics

CPU 0 cumulative IPC: 0.336095 instructions: 10000000 cycles: 29753523
L1D TOTAL     ACCESS:    2906522  HIT:    2413276  MISS:     493246
L1D LOAD      ACCESS:    1827719  HIT:    1584434  MISS:     243285
L1D RFO       ACCESS:     410981  HIT:     407758  MISS:       3223
L1D PREFETCH  ACCESS:     667822  HIT:     421084  MISS:     246738
L1D WRITEBACK ACCESS:          0  HIT:          0  MISS:          0
L1D PREFETCH  REQUESTED:     834334  ISSUED:     811018  USEFUL:      49203  USELESS:     197490
L1D AVERAGE MISS LATENCY: 118.96 cycles
L1I TOTAL     ACCESS:    1772740  HIT:    1739044  MISS:      33696
L1I LOAD      ACCESS:    1772740  HIT:    1739044  MISS:      33696
L1I RFO       ACCESS:          0  HIT:          0  MISS:          0
L1I PREFETCH  ACCESS:          0  HIT:          0  MISS:          0
L1I WRITEBACK ACCESS:          0  HIT:          0  MISS:          0
L1I PREFETCH  REQUESTED:          0  ISSUED:          0  USEFUL:          0  USELESS:          0
L1I AVERAGE MISS LATENCY: 32.4402 cycles
L2C TOTAL     ACCESS:     760329  HIT:     206316  MISS:     554013
L2C LOAD      ACCESS:     250638  HIT:      55646  MISS:     194992
L2C RFO       ACCESS:       3173  HIT:       1967  MISS:       1206
L2C PREFETCH  ACCESS:     496899  HIT:     139141  MISS:     357758
L2C WRITEBACK ACCESS:       9619  HIT:       9562  MISS:         57
L2C PREFETCH  REQUESTED:     499945  ISSUED:     494485  USEFUL:      15936  USELESS:     339542
L2C AVERAGE MISS LATENCY: 134.522 cycles
LLC TOTAL     ACCESS:     558216  HIT:      80730  MISS:     477486
LLC LOAD      ACCESS:     188819  HIT:      43965  MISS:     144854
LLC RFO       ACCESS:       1200  HIT:        552  MISS:        648
LLC PREFETCH  ACCESS:     363937  HIT:      32659  MISS:     331278
LLC WRITEBACK ACCESS:       4260  HIT:       3554  MISS:        706
LLC PREFETCH  REQUESTED:          0  ISSUED:          0  USEFUL:        999  USELESS:     324689
LLC AVERAGE MISS LATENCY: 117.568 cycles
Major fault: 0 Minor fault: 10726

OPTgen accesses: 6247
OPTgen hits: 4287
OPTgen hit rate: 68.6249



DRAM Statistics
 CHANNEL 0
 RQ ROW_BUFFER_HIT:     346104  ROW_BUFFER_MISS:     130676
 DBUS_CONGESTED:     202627
 WQ ROW_BUFFER_HIT:        346  ROW_BUFFER_MISS:       2110  FULL:          0

 AVG_CONGESTED_CYCLE: 5

CPU 0 Branch Prediction Accuracy: 94.8575% MPKI: 13.5308 Average ROB Occupancy at Mispredict: 35.286

Branch types
NOT_BRANCH: 7368471 73.6847%
BRANCH_DIRECT_JUMP: 21213 0.21213%
BRANCH_INDIRECT: 2896 0.02896%
BRANCH_CONDITIONAL: 2376059 23.7606%
BRANCH_DIRECT_CALL: 62935 0.62935%
BRANCH_INDIRECT_CALL: 52560 0.5256%
BRANCH_RETURN: 115500 1.155%
BRANCH_OTHER: 0 0%

