
*** ChampSim Multicore Out-of-Order Simulator ***

Warmup Instructions: 10000000
Simulation Instructions: 10000000
Number of CPUs: 1
LLC sets: 2048
LLC ways: 16
Off-chip DRAM Size: 4096 MB Channels: 1 Width: 64-bit Data Rate: 3200 MT/s

CPU 0 runs ../traces//605.mcf_s-1152B.champsimtrace.xz
CPU 0 Bimodal branch predictor
Initialize Hawkeye state
*************************************************1**************************
*************************************************1**************************
*************************************************1**************************
*************************************************1**************************
*************************************************1**************************
*************************************************1**************************
*************************************************1**************************
*************************************************1**************************
*************************************************1**************************
*************************************************1**************************
*************************************************1**************************
*************************************************1**************************
*************************************************1**************************
*************************************************1**************************
*************************************************1**************************
*************************************************1**************************
*************************************************1**************************
*************************************************1**************************
*************************************************1**************************
*************************************************1**************************
*************************************************1**************************
*************************************************1**************************
*************************************************1**************************
*************************************************1**************************
*************************************************1**************************
*************************************************1**************************
*************************************************1**************************
*************************************************1**************************
*************************************************1**************************
*************************************************1**************************
*************************************************1**************************
*************************************************1**************************
*************************************************1**************************
*************************************************1**************************
*************************************************1**************************
*************************************************1**************************
*************************************************1**************************
*************************************************1**************************
*************************************************1**************************
*************************************************1**************************
*************************************************1**************************
*************************************************1**************************
*************************************************1**************************
*************************************************1**************************
*************************************************1**************************
*************************************************1**************************
*************************************************1**************************
*************************************************1**************************
*************************************************1**************************
*************************************************1**************************
*************************************************1**************************
*************************************************1**************************
*************************************************1**************************
*************************************************1**************************
*************************************************1**************************
*************************************************1**************************
*************************************************1**************************
*************************************************1**************************
*************************************************1**************************
*************************************************1**************************
*************************************************1**************************
*************************************************1**************************
*************************************************1**************************
*************************************************1**************************
*************************************************1**************************
*************************************************1**************************
*************************************************1**************************
*************************************************1**************************
*************************************************1**************************
*************************************************1**************************
*************************************************1**************************
*************************************************1**************************
*************************************************1**************************
*************************************************1**************************
*************************************************1**************************
*************************************************1**************************
*************************************************1**************************
*************************************************1**************************
*************************************************1**************************
*************************************************1**************************
*************************************************1**************************
*************************************************1**************************
*************************************************1**************************
*************************************************1**************************
*************************************************1**************************
*************************************************1**************************
*************************************************1**************************
*************************************************1**************************
*************************************************1**************************
*************************************************1**************************
*************************************************1**************************
*************************************************1**************************
*************************************************1**************************
*************************************************1**************************
*************************************************1**************************
*************************************************1**************************
*************************************************1**************************
*************************************************1**************************
*************************************************1**************************
*************************************************1**************************
*************************************************1**************************
*************************************************1**************************
*************************************************1**************************
*************************************************1**************************
*************************************************1**************************
*************************************************1**************************
*************************************************1**************************
*************************************************1**************************
*************************************************1**************************
*************************************************1**************************
*************************************************1**************************
*************************************************1**************************
*************************************************1**************************
*************************************************1**************************
*************************************************1**************************
*************************************************1**************************
*************************************************1**************************
*************************************************1**************************
*************************************************1**************************
*************************************************1**************************
*************************************************1**************************
*************************************************1**************************
*************************************************1**************************
*************************************************1**************************
*************************************************1**************************
*************************************************1**************************
*************************************************1**************************
*************************************************1**************************
*************************************************1**************************
*************************************************1**************************
*************************************************1**************************
*************************************************1**************************
*************************************************1**************************
*************************************************1**************************
*************************************************1**************************
*************************************************1**************************
*************************************************1**************************
*************************************************1**************************
*************************************************1**************************
*************************************************1**************************
*************************************************1**************************
*************************************************1**************************
*************************************************1**************************
*************************************************1**************************
*************************************************1**************************
*************************************************1**************************
*************************************************1**************************
*************************************************1**************************
*************************************************1**************************
*************************************************1**************************
*************************************************1**************************
*************************************************1**************************
*************************************************1**************************
*************************************************1**************************
*************************************************1**************************
*************************************************1**************************
*************************************************1**************************
*************************************************1**************************
*************************************************1**************************
*************************************************1**************************
*************************************************1**************************
*************************************************1**************************
*************************************************1**************************
*************************************************1**************************
*************************************************1**************************
*************************************************1**************************
*************************************************1**************************
*************************************************1**************************
*************************************************1**************************
*************************************************1**************************
*************************************************1**************************
*************************************************1**************************
*************************************************1**************************
*************************************************1**************************
*************************************************1**************************
*************************************************1**************************
*************************************************1**************************
*************************************************1**************************
*************************************************1**************************
*************************************************1**************************
*************************************************1**************************
*************************************************1**************************
*************************************************1**************************
*************************************************1**************************
*************************************************1**************************
*************************************************1**************************
*************************************************1**************************
*************************************************1**************************
*************************************************1**************************
*************************************************1**************************
*************************************************1**************************
*************************************************1**************************
*************************************************1**************************
*************************************************1**************************
*************************************************1**************************
*************************************************1**************************
*************************************************1**************************
*************************************************1**************************
*************************************************1**************************
*************************************************1**************************
*************************************************1**************************
*************************************************1**************************
*************************************************1**************************
*************************************************1**************************
*************************************************1**************************
*************************************************1**************************
*************************************************1**************************
*************************************************1**************************
*************************************************1**************************
*************************************************1**************************
*************************************************1**************************
*************************************************1**************************
*************************************************1**************************
*************************************************1**************************
*************************************************1**************************
*************************************************1**************************
*************************************************1**************************
*************************************************1**************************
*************************************************1**************************
*************************************************1**************************
*************************************************1**************************
*************************************************1**************************
*************************************************1**************************
*************************************************1**************************
*************************************************1**************************
*************************************************1**************************
*************************************************1**************************
*************************************************1**************************
*************************************************1**************************
*************************************************1**************************
*************************************************1**************************
*************************************************1**************************
*************************************************1**************************
*************************************************1**************************
*************************************************1**************************
*************************************************1**************************
*************************************************1**************************
*************************************************1**************************
*************************************************1**************************
*************************************************1**************************
*************************************************1**************************
*************************************************1**************************
*************************************************1**************************
*************************************************1**************************
*************************************************1**************************
*************************************************1**************************
*************************************************1**************************
*************************************************1**************************
*************************************************1**************************
*************************************************1**************************
*************************************************1**************************
*************************************************1**************************
*************************************************1**************************
*************************************************1**************************
*************************************************1**************************
*************************************************1**************************
*************************************************1**************************
*************************************************1**************************
*************************************************1**************************
*************************************************1**************************
*************************************************1**************************
*************************************************1**************************
*************************************************1**************************
*************************************************1**************************
*************************************************1**************************
*************************************************1**************************
*************************************************1**************************
*************************************************1**************************
*************************************************1**************************
*************************************************1**************************
*************************************************1**************************
*************************************************1**************************
*************************************************1**************************
*************************************************1**************************
*************************************************1**************************
*************************************************1**************************
*************************************************1**************************
*************************************************1**************************
*************************************************1**************************
*************************************************1**************************
*************************************************1**************************
*************************************************1**************************
*************************************************1**************************
*************************************************1**************************
*************************************************1**************************
*************************************************1**************************
*************************************************1**************************
*************************************************1**************************
*************************************************1**************************
*************************************************1**************************
*************************************************1**************************
*************************************************1**************************
*************************************************1**************************
*************************************************1**************************
*************************************************1**************************
*************************************************1**************************
*************************************************1**************************
*************************************************1**************************
*************************************************1**************************
*************************************************1**************************
*************************************************1**************************
*************************************************1**************************
*************************************************1**************************
*************************************************1**************************
*************************************************1**************************
*************************************************1**************************
*************************************************1**************************
*************************************************1**************************
*************************************************1**************************
*************************************************1**************************
*************************************************1**************************
*************************************************1**************************
*************************************************1**************************
*************************************************1**************************
*************************************************1**************************
*************************************************1**************************
*************************************************1**************************
*************************************************1**************************
*************************************************1**************************
*************************************************1**************************
*************************************************1**************************
*************************************************1**************************
*************************************************1**************************
*************************************************1**************************
*************************************************1**************************
*************************************************1**************************
*************************************************1**************************
*************************************************1**************************
*************************************************1**************************
*************************************************1**************************
*************************************************1**************************
*************************************************1**************************
*************************************************1**************************
*************************************************1**************************
*************************************************1**************************
*************************************************1**************************
*************************************************1**************************
*************************************************1**************************
*************************************************1**************************
*************************************************1**************************
*************************************************1**************************
*************************************************1**************************
*************************************************1**************************
*************************************************1**************************
*************************************************1**************************
*************************************************1**************************
*************************************************1**************************
*************************************************1**************************
*************************************************1**************************
*************************************************1**************************
*************************************************1**************************
*************************************************1**************************
*************************************************1**************************
*************************************************1**************************
*************************************************1**************************
*************************************************1**************************
*************************************************1**************************
*************************************************1**************************
*************************************************1**************************
*************************************************1**************************
*************************************************1**************************
*************************************************1**************************
*************************************************1**************************
*************************************************1**************************
*************************************************1**************************
*************************************************1**************************
*************************************************1**************************
*************************************************1**************************
*************************************************1**************************
*************************************************1**************************
*************************************************1**************************
*************************************************1**************************
*************************************************1**************************
*************************************************1**************************
*************************************************1**************************
*************************************************1**************************
*************************************************1**************************
*************************************************1**************************
*************************************************1**************************
*************************************************1**************************
*************************************************1**************************
*************************************************1**************************
*************************************************1**************************
*************************************************1**************************
*************************************************1**************************
*************************************************1**************************
*************************************************1**************************
*************************************************1**************************
*************************************************1**************************
*************************************************1**************************
*************************************************1**************************
*************************************************1**************************
*************************************************1**************************
*************************************************1**************************
*************************************************1**************************
*************************************************1**************************
*************************************************1**************************
*************************************************1**************************
*************************************************1**************************
*************************************************1**************************
*************************************************1**************************
*************************************************1**************************
*************************************************1**************************
*************************************************1**************************
*************************************************1**************************
*************************************************1**************************
*************************************************1**************************
*************************************************1**************************
*************************************************1**************************
*************************************************1**************************
*************************************************1**************************
*************************************************1**************************
*************************************************1**************************
*************************************************1**************************
*************************************************1**************************
*************************************************1**************************
*************************************************1**************************
*************************************************1**************************
*************************************************1**************************
*************************************************1**************************
*************************************************1**************************
*************************************************1**************************
*************************************************1**************************
*************************************************1**************************
*************************************************1**************************
*************************************************1**************************
*************************************************1**************************
*************************************************1**************************
*************************************************1**************************
*************************************************1**************************
*************************************************1**************************
*************************************************1**************************
*************************************************1**************************
*************************************************1**************************
*************************************************1**************************
*************************************************1**************************
*************************************************1**************************
*************************************************1**************************
*************************************************1**************************
*************************************************1**************************
*************************************************1**************************
*************************************************1**************************
*************************************************1**************************
*************************************************1**************************
*************************************************1**************************
*************************************************1**************************
*************************************************1**************************
*************************************************1**************************
*************************************************1**************************
*************************************************1**************************
*************************************************1**************************
*************************************************1**************************
*************************************************1**************************
*************************************************1**************************
*************************************************1**************************
*************************************************1**************************
*************************************************1**************************
*************************************************1**************************
*************************************************1**************************
*************************************************1**************************
*************************************************1**************************
*************************************************1**************************
*************************************************1**************************
*************************************************1**************************
*************************************************1**************************
*************************************************1**************************
*************************************************1**************************
*************************************************1**************************
*************************************************1**************************
*************************************************1**************************
*************************************************1**************************
*************************************************1**************************
*************************************************1**************************
*************************************************1**************************
*************************************************1**************************
*************************************************1**************************
*************************************************1**************************
*************************************************1**************************
*************************************************1**************************
*************************************************1**************************
*************************************************1**************************
*************************************************1**************************
*************************************************1**************************
*************************************************1**************************
*************************************************1**************************
*************************************************1**************************
*************************************************1**************************
*************************************************1**************************
*************************************************1**************************
*************************************************1**************************
*************************************************1**************************
*************************************************1**************************
*************************************************1**************************
*************************************************1**************************
*************************************************1**************************
*************************************************1**************************
*************************************************1**************************
*************************************************1**************************
*************************************************1**************************
*************************************************1**************************
*************************************************1**************************
*************************************************1**************************
*************************************************1**************************
*************************************************1**************************
*************************************************1**************************
*************************************************1**************************
*************************************************1**************************
*************************************************1**************************
*************************************************1**************************
*************************************************1**************************
*************************************************1**************************
*************************************************1**************************
*************************************************1**************************
*************************************************1**************************
*************************************************1**************************
*************************************************1**************************
*************************************************1**************************
*************************************************1**************************
*************************************************1**************************
*************************************************1**************************
*************************************************1**************************
*************************************************1**************************
*************************************************1**************************
*************************************************1**************************
*************************************************1**************************
*************************************************1**************************
*************************************************1**************************
*************************************************1**************************
*************************************************1**************************
*************************************************1**************************
*************************************************1**************************
*************************************************1**************************
*************************************************1**************************
*************************************************1**************************
*************************************************1**************************
*************************************************1**************************
*************************************************1**************************
*************************************************1**************************
*************************************************1**************************
*************************************************1**************************
*************************************************1**************************
*************************************************1**************************
*************************************************1**************************
*************************************************1**************************
*************************************************1**************************
*************************************************1**************************
*************************************************1**************************
*************************************************1**************************
*************************************************1**************************
*************************************************1**************************
*************************************************1**************************
*************************************************1**************************
*************************************************1**************************
*************************************************1**************************
*************************************************1**************************
*************************************************1**************************
*************************************************1**************************
*************************************************1**************************
*************************************************1**************************
*************************************************1**************************
*************************************************1**************************
*************************************************1**************************
*************************************************1**************************
*************************************************1**************************
*************************************************1**************************
*************************************************1**************************
*************************************************1**************************
*************************************************1**************************
*************************************************1**************************
*************************************************1**************************
*************************************************1**************************
*************************************************1**************************
*************************************************1**************************
*************************************************1**************************
*************************************************1**************************
*************************************************1**************************
*************************************************1**************************
*************************************************1**************************
*************************************************1**************************
*************************************************1**************************
*************************************************1**************************
*************************************************1**************************
*************************************************1**************************
*************************************************1**************************
*************************************************1**************************
*************************************************1**************************
*************************************************1**************************
*************************************************1**************************
*************************************************1**************************
*************************************************1**************************
*************************************************1**************************
*************************************************1**************************
*************************************************1**************************
*************************************************1**************************
*************************************************1**************************
*************************************************1**************************
*************************************************1**************************
*************************************************1**************************
*************************************************1**************************
*************************************************1**************************
*************************************************1**************************
*************************************************1**************************
*************************************************1**************************
*************************************************1**************************
*************************************************1**************************
*************************************************1**************************
*************************************************1**************************
*************************************************1**************************
*************************************************1**************************
*************************************************1**************************
*************************************************1**************************
*************************************************1**************************
*************************************************1**************************
*************************************************1**************************
*************************************************1**************************
*************************************************1**************************
*************************************************1**************************
*************************************************1**************************
*************************************************1**************************
*************************************************1**************************
*************************************************1**************************
*************************************************1**************************
*************************************************1**************************
*************************************************1**************************
*************************************************1**************************
*************************************************1**************************
*************************************************1**************************
*************************************************1**************************
*************************************************1**************************
*************************************************1**************************
*************************************************1**************************
*************************************************1**************************
*************************************************1**************************
*************************************************1**************************
*************************************************1**************************
*************************************************1**************************
*************************************************1**************************
*************************************************1**************************
*************************************************1**************************
*************************************************1**************************
*************************************************1**************************
*************************************************1**************************
*************************************************1**************************
*************************************************1**************************
*************************************************1**************************
*************************************************1**************************
*************************************************1**************************
*************************************************1**************************
*************************************************1**************************
*************************************************1**************************
*************************************************1**************************
*************************************************1**************************
*************************************************1**************************
*************************************************1**************************
*************************************************1**************************
*************************************************1**************************
*************************************************1**************************
*************************************************1**************************
*************************************************1**************************
*************************************************1**************************
*************************************************1**************************
*************************************************1**************************
*************************************************1**************************
*************************************************1**************************
*************************************************1**************************
*************************************************1**************************
*************************************************1**************************
*************************************************1**************************
*************************************************1**************************
*************************************************1**************************
*************************************************1**************************
*************************************************1**************************
*************************************************1**************************
*************************************************1**************************
*************************************************1**************************
*************************************************1**************************
*************************************************1**************************
*************************************************1**************************
*************************************************1**************************
*************************************************1**************************
*************************************************1**************************
*************************************************1**************************
*************************************************1**************************
*************************************************1**************************
*************************************************1**************************
*************************************************1**************************
*************************************************1**************************
*************************************************1**************************
*************************************************1**************************
*************************************************1**************************
*************************************************1**************************
*************************************************1**************************
*************************************************1**************************
*************************************************1**************************
*************************************************1**************************
*************************************************1**************************
*************************************************1**************************
*************************************************1**************************
*************************************************1**************************
*************************************************1**************************
*************************************************1**************************
*************************************************1**************************
*************************************************1**************************
*************************************************1**************************
*************************************************1**************************
*************************************************1**************************
*************************************************1**************************
*************************************************1**************************
*************************************************1**************************
*************************************************1**************************
*************************************************1**************************
*************************************************1**************************
*************************************************1**************************
*************************************************1**************************
*************************************************1**************************
*************************************************1**************************
*************************************************1**************************
*************************************************1**************************
*************************************************1**************************
*************************************************1**************************
*************************************************1**************************
*************************************************1**************************
*************************************************1**************************
*************************************************1**************************
*************************************************1**************************
*************************************************1**************************
*************************************************1**************************
*************************************************1**************************
*************************************************1**************************
*************************************************1**************************
*************************************************1**************************
*************************************************1**************************
*************************************************1**************************
*************************************************1**************************
*************************************************1**************************
*************************************************1**************************
*************************************************1**************************
*************************************************1**************************
*************************************************1**************************
*************************************************1**************************
*************************************************1**************************
*************************************************1**************************
*************************************************1**************************
*************************************************1**************************
*************************************************1**************************
*************************************************1**************************
*************************************************1**************************
*************************************************1**************************
*************************************************1**************************
*************************************************1**************************
*************************************************1**************************
*************************************************1**************************
*************************************************1**************************
*************************************************1**************************
*************************************************1**************************
*************************************************1**************************
*************************************************1**************************
*************************************************1**************************
*************************************************1**************************
*************************************************1**************************
*************************************************1**************************
*************************************************1**************************
*************************************************1**************************
*************************************************1**************************
*************************************************1**************************
*************************************************1**************************
*************************************************1**************************
*************************************************1**************************
*************************************************1**************************
*************************************************1**************************
*************************************************1**************************
*************************************************1**************************
*************************************************1**************************
*************************************************1**************************
*************************************************1**************************
*************************************************1**************************
*************************************************1**************************
*************************************************1**************************
*************************************************1**************************
*************************************************1**************************
*************************************************1**************************
*************************************************1**************************
*************************************************1**************************
*************************************************1**************************
*************************************************1**************************
*************************************************1**************************
*************************************************1**************************
*************************************************1**************************
*************************************************1**************************
*************************************************1**************************
*************************************************1**************************
*************************************************1**************************
*************************************************1**************************
*************************************************1**************************
*************************************************1**************************
*************************************************1**************************
*************************************************1**************************
*************************************************1**************************
*************************************************1**************************
*************************************************1**************************
*************************************************1**************************
*************************************************1**************************
*************************************************1**************************
*************************************************1**************************
*************************************************1**************************
*************************************************1**************************
*************************************************1**************************
*************************************************1**************************
*************************************************1**************************
*************************************************1**************************
*************************************************1**************************
*************************************************1**************************
*************************************************1**************************
*************************************************1**************************
*************************************************1**************************
*************************************************1**************************
*************************************************1**************************
*************************************************1**************************
*************************************************1**************************
*************************************************1**************************
*************************************************1**************************
*************************************************1**************************
*************************************************1**************************
*************************************************1**************************
*************************************************1**************************
*************************************************1**************************
*************************************************1**************************
*************************************************1**************************
*************************************************1**************************
*************************************************1**************************
*************************************************1**************************
*************************************************1**************************
*************************************************1**************************
*************************************************1**************************
*************************************************1**************************
*************************************************1**************************
*************************************************1**************************
*************************************************1**************************
*************************************************1**************************
*************************************************1**************************
*************************************************1**************************
*************************************************1**************************
*************************************************1**************************
*************************************************1**************************
*************************************************1**************************
*************************************************1**************************
*************************************************1**************************
*************************************************1**************************
*************************************************1**************************
*************************************************1**************************
*************************************************1**************************
*************************************************1**************************
*************************************************1**************************
*************************************************1**************************
*************************************************1**************************
*************************************************1**************************
*************************************************1**************************
*************************************************1**************************
*************************************************1**************************
*************************************************1**************************
*************************************************1**************************
*************************************************1**************************
*************************************************1**************************
*************************************************1**************************
*************************************************1**************************
*************************************************1**************************
*************************************************1**************************
*************************************************1**************************
*************************************************1**************************
*************************************************1**************************
*************************************************1**************************
*************************************************1**************************
*************************************************1**************************
*************************************************1**************************
*************************************************1**************************
*************************************************1**************************
*************************************************1**************************
*************************************************1**************************
*************************************************1**************************
*************************************************1**************************
*************************************************1**************************
*************************************************1**************************
*************************************************1**************************
*************************************************1**************************
*************************************************1**************************
*************************************************1**************************
*************************************************1**************************
*************************************************1**************************
*************************************************1**************************
*************************************************1**************************
*************************************************1**************************
*************************************************1**************************
*************************************************1**************************
*************************************************1**************************
*************************************************1**************************
*************************************************1**************************
*************************************************1**************************
*************************************************1**************************
*************************************************1**************************
*************************************************1**************************
*************************************************1**************************
*************************************************1**************************
*************************************************1**************************
*************************************************1**************************
*************************************************1**************************
*************************************************1**************************
*************************************************1**************************
*************************************************1**************************
*************************************************1**************************
*************************************************1**************************
*************************************************1**************************
*************************************************1**************************
*************************************************1**************************
*************************************************1**************************
*************************************************1**************************
*************************************************1**************************
*************************************************1**************************
*************************************************1**************************
*************************************************1**************************
*************************************************1**************************
*************************************************1**************************
*************************************************1**************************
*************************************************1**************************
*************************************************1**************************
*************************************************1**************************
*************************************************1**************************
*************************************************1**************************
*************************************************1**************************
*************************************************1**************************
*************************************************1**************************
*************************************************1**************************
*************************************************1**************************
*************************************************1**************************
*************************************************1**************************
*************************************************1**************************
*************************************************1**************************
*************************************************1**************************
*************************************************1**************************
*************************************************1**************************
*************************************************1**************************
*************************************************1**************************
*************************************************1**************************
*************************************************1**************************
*************************************************1**************************
*************************************************1**************************
*************************************************1**************************
*************************************************1**************************
*************************************************1**************************
*************************************************1**************************
*************************************************1**************************
*************************************************1**************************
*************************************************1**************************
*************************************************1**************************
*************************************************1**************************
*************************************************1**************************
*************************************************1**************************
*************************************************1**************************
*************************************************1**************************
*************************************************1**************************
*************************************************1**************************
*************************************************1**************************
*************************************************1**************************
*************************************************1**************************
*************************************************1**************************
*************************************************1**************************
*************************************************1**************************
*************************************************1**************************
*************************************************1**************************
*************************************************1**************************
*************************************************1**************************
*************************************************1**************************
*************************************************1**************************
*************************************************1**************************
*************************************************1**************************
*************************************************1**************************
*************************************************1**************************
*************************************************1**************************
*************************************************1**************************
*************************************************1**************************
*************************************************1**************************
*************************************************1**************************
*************************************************1**************************
*************************************************1**************************
*************************************************1**************************
*************************************************1**************************
*************************************************1**************************
*************************************************1**************************
*************************************************1**************************
*************************************************1**************************
*************************************************1**************************
*************************************************1**************************
*************************************************1**************************
*************************************************1**************************
*************************************************1**************************
*************************************************1**************************
*************************************************1**************************
*************************************************1**************************
*************************************************1**************************
*************************************************1**************************
*************************************************1**************************
*************************************************1**************************
*************************************************1**************************
*************************************************1**************************
*************************************************1**************************
*************************************************1**************************
*************************************************1**************************
*************************************************1**************************
*************************************************1**************************
*************************************************1**************************
*************************************************1**************************
*************************************************1**************************
*************************************************1**************************
*************************************************1**************************
*************************************************1**************************
*************************************************1**************************
*************************************************1**************************
*************************************************1**************************
*************************************************1**************************
*************************************************1**************************
*************************************************1**************************
*************************************************1**************************
*************************************************1**************************
*************************************************1**************************
*************************************************1**************************
*************************************************1**************************
*************************************************1**************************
*************************************************1**************************
*************************************************1**************************
*************************************************1**************************
*************************************************1**************************
*************************************************1**************************
*************************************************1**************************
*************************************************1**************************
*************************************************1**************************
[...]
*************************************************1**************************
*************************************************1**************************
*************************************************1**************************
*************************************************1**************************
*************************************************1**************************
*************************************************1**************************
*************************************************1**************************
*************************************************1**************************
*************************************************1**************************
*************************************************1**************************
*************************************************1**************************
*************************************************1**************************
*************************************************1**************************
*************************************************1**************************
*************************************************1**************************
*************************************************1**************************
*************************************************1**************************
*************************************************1**************************
*************************************************1**************************
*************************************************1**************************
*************************************************1**************************
*************************************************1**************************
*************************************************1**************************
*************************************************1**************************
*************************************************1**************************
*************************************************1**************************
*************************************************1**************************
*************************************************1**************************
*************************************************1**************************
*************************************************1**************************
*************************************************1**************************
*************************************************1**************************
*************************************************1**************************
*************************************************1**************************
*************************************************1**************************
*************************************************1**************************
*************************************************1**************************
*************************************************1**************************
*************************************************1**************************
*************************************************1**************************
*************************************************1**************************
*************************************************1**************************
*************************************************1**************************
*************************************************1**************************
*************************************************1**************************
*************************************************1**************************
*************************************************1**************************
*************************************************1**************************
*************************************************1**************************
*************************************************1**************************
*************************************************1**************************
*************************************************1**************************
*************************************************1**************************
*************************************************1**************************
*************************************************1**************************
*************************************************1**************************
*************************************************1**************************
*************************************************1**************************
*************************************************1**************************
*************************************************1**************************
*************************************************1**************************
*************************************************1**************************
*************************************************1**************************
*************************************************1**************************
*************************************************1**************************
*************************************************1**************************
*************************************************1**************************
*************************************************1**************************
*************************************************1**************************
*************************************************1**************************
*************************************************1**************************
*************************************************1**************************
*************************************************1**************************
*************************************************1**************************
*************************************************1**************************
*************************************************1**************************
*************************************************1**************************
*************************************************1**************************
*************************************************1**************************
*************************************************1**************************
*************************************************1**************************
*************************************************1**************************
*************************************************1**************************
*************************************************1**************************
*************************************************1**************************
*************************************************1**************************
*************************************************1**************************
*************************************************1**************************
*************************************************1**************************
*************************************************1**************************
*************************************************1**************************
*************************************************1**************************
*************************************************1**************************
*************************************************1**************************
*************************************************1**************************
*************************************************1**************************
*************************************************1**************************
*************************************************1**************************
*************************************************1**************************
*************************************************1**************************
*************************************************1**************************
*************************************************1**************************
*************************************************1**************************
*************************************************1**************************
*************************************************1**************************
*************************************************1**************************
*************************************************1**************************
*************************************************1**************************
*************************************************1**************************
*************************************************1**************************
*************************************************1**************************
*************************************************1**************************
*************************************************1**************************
*************************************************1**************************
*************************************************1**************************
*************************************************1**************************
*************************************************1**************************
*************************************************1**************************
*************************************************1**************************
*************************************************1**************************
*************************************************1**************************
*************************************************1**************************
*************************************************1**************************
*************************************************1**************************
*************************************************1**************************
*************************************************1**************************
*************************************************1**************************
*************************************************1**************************
*************************************************1**************************
*************************************************1**************************
*************************************************1**************************
*************************************************1**************************
*************************************************1**************************
*************************************************1**************************
*************************************************1**************************
*************************************************1**************************
*************************************************1**************************
*************************************************1**************************
*************************************************1**************************
*************************************************1**************************
*************************************************1**************************
*************************************************1**************************
*************************************************1**************************
*************************************************1**************************
*************************************************1**************************
*************************************************1**************************
*************************************************1**************************
*************************************************1**************************
*************************************************1**************************
*************************************************1**************************
*************************************************1**************************
*************************************************1**************************
*************************************************1**************************
*************************************************1**************************
*************************************************1**************************
*************************************************1**************************
*************************************************1**************************
*************************************************1**************************
*************************************************1**************************
*************************************************1**************************
*************************************************1**************************
*************************************************1**************************
*************************************************1**************************
*************************************************1**************************
*************************************************1**************************
*************************************************1**************************
*************************************************1**************************
*************************************************1**************************
*************************************************1**************************
*************************************************1**************************
*************************************************1**************************
*************************************************1**************************
*************************************************1**************************
*************************************************1**************************
*************************************************1**************************
*************************************************1**************************
*************************************************1**************************
*************************************************1**************************
*************************************************1**************************
*************************************************1**************************
*************************************************1**************************
*************************************************1**************************
*************************************************1**************************
*************************************************1**************************
*************************************************1**************************
*************************************************1**************************
*************************************************1**************************
*************************************************1**************************
*************************************************1**************************
*************************************************1**************************
*************************************************1**************************
*************************************************1**************************
*************************************************1**************************
*************************************************1**************************
*************************************************1**************************
*************************************************1**************************
*************************************************1**************************
*************************************************1**************************
*************************************************1**************************
*************************************************1**************************
*************************************************1**************************
*************************************************1**************************
*************************************************1**************************
*************************************************1**************************
*************************************************1**************************
*************************************************1**************************
*************************************************1**************************
*************************************************1**************************
*************************************************1**************************
*************************************************1**************************
*************************************************1**************************
*************************************************1**************************
*************************************************1**************************
*************************************************1**************************
*************************************************1**************************
*************************************************1**************************
*************************************************1**************************
*************************************************1**************************
*************************************************1**************************
*************************************************1**************************
*************************************************1**************************
Heartbeat CPU 0 instructions: 20000001 cycles: 29038691 heartbeat IPC: 0.4024 cumulative IPC: 0.4024 (Simulation time: 0 hr 0 min 58 sec) 
Finished CPU 0 instructions: 10000003 cycles: 24850878 cumulative IPC: 0.4024 (Simulation time: 0 hr 0 min 58 sec) 

ChampSim completed all CPUs

Region of Interest Statistics

CPU 0 cumulative IPC: 0.4024 instructions: 10000003 cycles: 24850878
L1D TOTAL     ACCESS:    4999897  HIT:    4295192  MISS:     704705
L1D LOAD      ACCESS:    2615351  HIT:    2239015  MISS:     376336
L1D RFO       ACCESS:     972011  HIT:     936440  MISS:      35571
L1D PREFETCH  ACCESS:    1412535  HIT:    1119737  MISS:     292798
L1D WRITEBACK ACCESS:          0  HIT:          0  MISS:          0
L1D PREFETCH  REQUESTED:    1738452  ISSUED:    1701158  USEFUL:     144023  USELESS:     148739
L1D AVERAGE MISS LATENCY: 62.7131 cycles
L1I TOTAL     ACCESS:    1852517  HIT:    1852517  MISS:          0
L1I LOAD      ACCESS:    1852517  HIT:    1852517  MISS:          0
L1I RFO       ACCESS:          0  HIT:          0  MISS:          0
L1I PREFETCH  ACCESS:          0  HIT:          0  MISS:          0
L1I WRITEBACK ACCESS:          0  HIT:          0  MISS:          0
L1I PREFETCH  REQUESTED:          0  ISSUED:          0  USEFUL:          0  USELESS:          0
L1I AVERAGE MISS LATENCY: -nan cycles
L2C TOTAL     ACCESS:     950959  HIT:     435844  MISS:     515115
L2C LOAD      ACCESS:     362129  HIT:     107232  MISS:     254897
L2C RFO       ACCESS:      35546  HIT:      20633  MISS:      14913
L2C PREFETCH  ACCESS:     498195  HIT:     252954  MISS:     245241
L2C WRITEBACK ACCESS:      55089  HIT:      55025  MISS:         64
L2C PREFETCH  REQUESTED:     441393  ISSUED:     439624  USEFUL:      18215  USELESS:     227211
L2C AVERAGE MISS LATENCY: 93.1188 cycles
LLC TOTAL     ACCESS:     547584  HIT:     321539  MISS:     226045
LLC LOAD      ACCESS:     254872  HIT:     217478  MISS:      37394
LLC RFO       ACCESS:      14913  HIT:      14860  MISS:         53
LLC PREFETCH  ACCESS:     245266  HIT:      56810  MISS:     188456
LLC WRITEBACK ACCESS:      32533  HIT:      32391  MISS:        142
LLC PREFETCH  REQUESTED:          0  ISSUED:          0  USEFUL:       3279  USELESS:     188280
LLC AVERAGE MISS LATENCY: 142.396 cycles
Major fault: 0 Minor fault: 5829

OPTgen accesses: 7025
OPTgen hits: 7091
OPTgen hit rate: 100.94



DRAM Statistics
 CHANNEL 0
 RQ ROW_BUFFER_HIT:     116979  ROW_BUFFER_MISS:     108924
 DBUS_CONGESTED:      81342
 WQ ROW_BUFFER_HIT:        121  ROW_BUFFER_MISS:        440  FULL:          0

 AVG_CONGESTED_CYCLE: 6

CPU 0 Branch Prediction Accuracy: 90.069% MPKI: 24.7924 Average ROB Occupancy at Mispredict: 17.4252

Branch types
NOT_BRANCH: 7503182 75.0318%
BRANCH_DIRECT_JUMP: 265568 2.65568%
BRANCH_INDIRECT: 0 0%
BRANCH_CONDITIONAL: 1768561 17.6856%
BRANCH_DIRECT_CALL: 217259 2.17259%
BRANCH_INDIRECT_CALL: 13912 0.13912%
BRANCH_RETURN: 231166 2.31166%
BRANCH_OTHER: 0 0%

