
*** ChampSim Multicore Out-of-Order Simulator ***

Warmup Instructions: 10000000
Simulation Instructions: 10000000
Number of CPUs: 1
LLC sets: 2048
LLC ways: 16
Off-chip DRAM Size: 4096 MB Channels: 1 Width: 64-bit Data Rate: 3200 MT/s

CPU 0 runs ../traces//607.cactuBSSN_s-2421B.champsimtrace.xz
CPU 0 Bimodal branch predictor
Initialize Hawkeye state
*************************************************1**************************
*************************************************1**************************
*************************************************1**************************
*************************************************1**************************
*************************************************1**************************
*************************************************1**************************
*************************************************1**************************
*************************************************1**************************
*************************************************1**************************
*************************************************1**************************
*************************************************1**************************
*************************************************1**************************
*************************************************1**************************
*************************************************1**************************
*************************************************1**************************
*************************************************1**************************
*************************************************1**************************
*************************************************1**************************
*************************************************1**************************
*************************************************1**************************
*************************************************1**************************
*************************************************1**************************
*************************************************1**************************
*************************************************1**************************
*************************************************1**************************
*************************************************1**************************
*************************************************1**************************
*************************************************1**************************
*************************************************1**************************
*************************************************1**************************
*************************************************1**************************
*************************************************1**************************
*************************************************1**************************
*************************************************1**************************
*************************************************1**************************
*************************************************1**************************
*************************************************1**************************
*************************************************1**************************
*************************************************1**************************
*************************************************1**************************
Heartbeat CPU 0 instructions: 10000002 cycles: 4831418 heartbeat IPC: 2.06979 cumulative IPC: 2.06979 (Simulation time: 0 hr 0 min 34 sec) 

Warmup complete CPU 0 instructions: 10000002 cycles: 4831418 (Simulation time: 0 hr 0 min 34 sec) 

*************************************************1**************************
*************************************************1**************************
*************************************************1**************************
*************************************************1**************************
*************************************************1**************************
*************************************************1**************************
*************************************************1**************************
*************************************************1**************************
*************************************************1**************************
*************************************************1**************************
*************************************************1**************************
*************************************************1**************************
*************************************************1**************************
*************************************************1**************************
*************************************************1**************************
*************************************************1**************************
*************************************************1**************************
*************************************************1**************************
*************************************************1**************************
*************************************************1**************************
*************************************************1**************************
*************************************************1**************************
*************************************************1**************************
*************************************************1**************************
*************************************************1**************************
*************************************************1**************************
*************************************************1**************************
*************************************************1**************************
*************************************************1**************************
*************************************************1**************************
*************************************************1**************************
*************************************************1**************************
*************************************************1**************************
*************************************************1**************************
*************************************************1**************************
*************************************************1**************************
*************************************************1**************************
*************************************************1**************************
*************************************************1**************************
*************************************************1**************************
*************************************************1**************************
*************************************************1**************************
*************************************************1**************************
*************************************************1**************************
*************************************************1**************************
*************************************************1**************************
*************************************************1**************************
*************************************************1**************************
Heartbeat CPU 0 instructions: 20000001 cycles: 11915300 heartbeat IPC: 1.41166 cumulative IPC: 1.41166 (Simulation time: 0 hr 1 min 5 sec) 
Finished CPU 0 instructions: 10000002 cycles: 7083891 cumulative IPC: 1.41165 (Simulation time: 0 hr 1 min 5 sec) 

ChampSim completed all CPUs

Region of Interest Statistics

CPU 0 cumulative IPC: 1.41165 instructions: 10000002 cycles: 7083891
L1D TOTAL     ACCESS:    5784925  HIT:    4615591  MISS:    1169334
L1D LOAD      ACCESS:    3121988  HIT:    2429648  MISS:     692340
L1D RFO       ACCESS:     794570  HIT:     728906  MISS:      65664
L1D PREFETCH  ACCESS:    1868367  HIT:    1457037  MISS:     411330
L1D WRITEBACK ACCESS:          0  HIT:          0  MISS:          0
L1D PREFETCH  REQUESTED:    2209376  ISSUED:    1953992  USEFUL:      24884  USELESS:     386432
L1D AVERAGE MISS LATENCY: 23.1118 cycles
L1I TOTAL     ACCESS:    1384722  HIT:    1124615  MISS:     260107
L1I LOAD      ACCESS:    1384722  HIT:    1124615  MISS:     260107
L1I RFO       ACCESS:          0  HIT:          0  MISS:          0
L1I PREFETCH  ACCESS:          0  HIT:          0  MISS:          0
L1I WRITEBACK ACCESS:          0  HIT:          0  MISS:          0
L1I PREFETCH  REQUESTED:          0  ISSUED:          0  USEFUL:          0  USELESS:          0
L1I AVERAGE MISS LATENCY: 14.2598 cycles
L2C TOTAL     ACCESS:    2355006  HIT:    2300761  MISS:      54245
L2C LOAD      ACCESS:     940822  HIT:     939151  MISS:       1671
L2C RFO       ACCESS:      64879  HIT:      58969  MISS:       5910
L2C PREFETCH  ACCESS:    1274285  HIT:    1227623  MISS:      46662
L2C WRITEBACK ACCESS:      75020  HIT:      75018  MISS:          2
L2C PREFETCH  REQUESTED:    1374778  ISSUED:    1055788  USEFUL:      46288  USELESS:        247
L2C AVERAGE MISS LATENCY: 185.876 cycles
LLC TOTAL     ACCESS:      60111  HIT:      28251  MISS:      31860
LLC LOAD      ACCESS:       1553  HIT:        706  MISS:        847
LLC RFO       ACCESS:       5910  HIT:          0  MISS:       5910
LLC PREFETCH  ACCESS:      46780  HIT:      24188  MISS:      22592
LLC WRITEBACK ACCESS:       5868  HIT:       3357  MISS:       2511
LLC PREFETCH  REQUESTED:          0  ISSUED:          0  USEFUL:         61  USELESS:      20147
LLC AVERAGE MISS LATENCY: 264.657 cycles
Major fault: 0 Minor fault: 1071

OPTgen accesses: 261
OPTgen hits: 88
OPTgen hit rate: 33.7165



DRAM Statistics
 CHANNEL 0
 RQ ROW_BUFFER_HIT:      11218  ROW_BUFFER_MISS:      18131
 DBUS_CONGESTED:       6026
 WQ ROW_BUFFER_HIT:        972  ROW_BUFFER_MISS:       5134  FULL:          0

 AVG_CONGESTED_CYCLE: 5

CPU 0 Branch Prediction Accuracy: 99.3409% MPKI: 0.06 Average ROB Occupancy at Mispredict: 10.1983

Branch types
NOT_BRANCH: 9908963 99.0896%
BRANCH_DIRECT_JUMP: 11094 0.11094%
BRANCH_INDIRECT: 1824 0.01824%
BRANCH_CONDITIONAL: 56183 0.56183%
BRANCH_DIRECT_CALL: 10969 0.10969%
BRANCH_INDIRECT_CALL: 0 0%
BRANCH_RETURN: 10969 0.10969%
BRANCH_OTHER: 0 0%

