
*** ChampSim Multicore Out-of-Order Simulator ***

Warmup Instructions: 10000000
Simulation Instructions: 10000000
Number of CPUs: 1
LLC sets: 2048
LLC ways: 16
Off-chip DRAM Size: 4096 MB Channels: 1 Width: 64-bit Data Rate: 3200 MT/s

CPU 0 runs ../traces//482.sphinx3-1100B.champsimtrace.xz
CPU 0 Bimodal branch predictor
Initialize Hawkeye state
*************************************************1**************************
*************************************************1**************************
*************************************************1**************************
*************************************************1**************************
*************************************************1**************************
*************************************************1**************************
*************************************************1**************************
*************************************************1**************************
*************************************************1**************************
*************************************************1**************************
*************************************************1**************************
*************************************************1**************************
*************************************************1**************************
*************************************************1**************************
*************************************************1**************************
*************************************************1**************************
*************************************************1**************************
*************************************************1**************************
*************************************************1**************************
*************************************************1**************************
*************************************************1**************************
*************************************************1**************************
*************************************************1**************************
*************************************************1**************************
*************************************************1**************************
*************************************************1**************************
*************************************************1**************************
*************************************************1**************************
*************************************************1**************************
*************************************************1**************************
*************************************************1**************************
*************************************************1**************************
*************************************************1**************************
*************************************************1**************************
*************************************************1**************************
*************************************************1**************************
*************************************************1**************************
*************************************************1**************************
*************************************************1**************************
*************************************************1**************************
*************************************************1**************************
*************************************************1**************************
*************************************************1**************************
*************************************************1**************************
*************************************************1**************************
*************************************************1**************************
*************************************************1**************************
*************************************************1**************************
*************************************************1**************************
*************************************************1**************************
*************************************************1**************************
*************************************************1**************************
*************************************************1**************************
*************************************************1**************************
*************************************************1**************************
*************************************************1**************************
*************************************************1**************************
*************************************************1**************************
*************************************************1**************************
*************************************************1**************************
*************************************************1**************************
*************************************************1**************************
*************************************************1**************************
*************************************************1**************************
*************************************************1**************************
*************************************************1**************************
*************************************************1**************************
*************************************************1**************************
*************************************************1**************************
*************************************************1**************************
*************************************************1**************************
*************************************************1**************************
*************************************************1**************************
*************************************************1**************************
*************************************************1**************************
*************************************************1**************************
*************************************************1**************************
*************************************************1**************************
*************************************************1**************************
*************************************************1**************************
*************************************************1**************************
*************************************************1**************************
*************************************************1**************************
*************************************************1**************************
*************************************************1**************************
*************************************************1**************************
*************************************************1**************************
*************************************************1**************************
*************************************************1**************************
*************************************************1**************************
*************************************************1**************************
*************************************************1**************************
*************************************************1**************************
*************************************************1**************************
*************************************************1**************************
*************************************************1**************************
*************************************************1**************************
*************************************************1**************************
*************************************************1**************************
*************************************************1**************************
*************************************************1**************************
*************************************************1**************************
*************************************************1**************************
*************************************************1**************************
*************************************************1**************************
*************************************************1**************************
*************************************************1**************************
*************************************************1**************************
*************************************************1**************************
*************************************************1**************************
*************************************************1**************************
*************************************************1**************************
*************************************************1**************************
*************************************************1**************************
*************************************************1**************************
*************************************************1**************************
*************************************************1**************************
*************************************************1**************************
*************************************************1**************************
*************************************************1**************************
*************************************************1**************************
*************************************************1**************************
*************************************************1**************************
*************************************************1**************************
*************************************************1**************************
*************************************************1**************************
*************************************************1**************************
*************************************************1**************************
*************************************************1**************************
*************************************************1**************************
*************************************************1**************************
*************************************************1**************************
*************************************************1**************************
*************************************************1**************************
*************************************************1**************************
*************************************************1**************************
*************************************************1**************************
*************************************************1**************************
*************************************************1**************************
*************************************************1**************************
*************************************************1**************************
*************************************************1**************************
*************************************************1**************************
*************************************************1**************************
*************************************************1**************************
*************************************************1**************************
*************************************************1**************************
*************************************************1**************************
*************************************************1**************************
*************************************************1**************************
*************************************************1**************************
*************************************************1**************************
*************************************************1**************************
*************************************************1**************************
*************************************************1**************************
*************************************************1**************************
*************************************************1**************************
*************************************************1**************************
*************************************************1**************************
*************************************************1**************************
*************************************************1**************************
*************************************************1**************************
*************************************************1**************************
*************************************************1**************************
*************************************************1**************************
*************************************************1**************************
*************************************************1**************************
*************************************************1**************************
*************************************************1**************************
*************************************************1**************************
*************************************************1**************************
*************************************************1**************************
*************************************************1**************************
*************************************************1**************************
*************************************************1**************************
*************************************************1**************************
*************************************************1**************************
*************************************************1**************************
*************************************************1**************************
*************************************************1**************************
*************************************************1**************************
*************************************************1**************************
*************************************************1**************************
*************************************************1**************************
*************************************************1**************************
*************************************************1**************************
*************************************************1**************************
*************************************************1**************************
*************************************************1**************************
*************************************************1**************************
*************************************************1**************************
*************************************************1**************************
*************************************************1**************************
*************************************************1**************************
*************************************************1**************************
*************************************************1**************************
*************************************************1**************************
*************************************************1**************************
*************************************************1**************************
*************************************************1**************************
*************************************************1**************************
*************************************************1**************************
*************************************************1**************************
*************************************************1**************************
*************************************************1**************************
*************************************************1**************************
*************************************************1**************************
*************************************************1**************************
*************************************************1**************************
*************************************************1**************************
*************************************************1**************************
*************************************************1**************************
*************************************************1**************************
*************************************************1**************************
*************************************************1**************************
*************************************************1**************************
*************************************************1**************************
*************************************************1**************************
*************************************************1**************************
*************************************************1**************************
*************************************************1**************************
*************************************************1**************************
*************************************************1**************************
*************************************************1**************************
*************************************************1**************************
*************************************************1**************************
*************************************************1**************************
*************************************************1**************************
*************************************************1**************************
*************************************************1**************************
*************************************************1**************************
*************************************************1**************************
*************************************************1**************************
*************************************************1**************************
*************************************************1**************************
*************************************************1**************************
*************************************************1**************************
*************************************************1**************************
*************************************************1**************************
*************************************************1**************************
*************************************************1**************************
*************************************************1**************************
*************************************************1**************************
*************************************************1**************************
*************************************************1**************************
*************************************************1**************************
*************************************************1**************************
*************************************************1**************************
*************************************************1**************************
*************************************************1**************************
*************************************************1**************************
*************************************************1**************************
*************************************************1**************************
*************************************************1**************************
*************************************************1**************************
*************************************************1**************************
*************************************************1**************************
*************************************************1**************************
*************************************************1**************************
*************************************************1**************************
*************************************************1**************************
*************************************************1**************************
*************************************************1**************************
*************************************************1**************************
*************************************************1**************************
*************************************************1**************************
*************************************************1**************************
*************************************************1**************************
*************************************************1**************************
*************************************************1**************************
*************************************************1**************************
*************************************************1**************************
*************************************************1**************************
*************************************************1**************************
*************************************************1**************************
*************************************************1**************************
*************************************************1**************************
*************************************************1**************************
*************************************************1**************************
*************************************************1**************************
*************************************************1**************************
*************************************************1**************************
*************************************************1**************************
*************************************************1**************************
*************************************************1**************************
*************************************************1**************************
*************************************************1**************************
*************************************************1**************************
*************************************************1**************************
*************************************************1**************************
*************************************************1**************************
*************************************************1**************************
*************************************************1**************************
*************************************************1**************************
*************************************************1**************************
*************************************************1**************************
*************************************************1**************************
*************************************************1**************************
*************************************************1**************************
*************************************************1**************************
*************************************************1**************************
*************************************************1**************************
*************************************************1**************************
*************************************************1**************************
*************************************************1**************************
*************************************************1**************************
*************************************************1**************************
*************************************************1**************************
*************************************************1**************************
*************************************************1**************************
*************************************************1**************************
*************************************************1**************************
*************************************************1**************************
*************************************************1**************************
*************************************************1**************************
*************************************************1**************************
*************************************************1**************************
*************************************************1**************************
*************************************************1**************************
*************************************************1**************************
*************************************************1**************************
*************************************************1**************************
*************************************************1**************************
*************************************************1**************************
*************************************************1**************************
*************************************************1**************************
*************************************************1**************************
*************************************************1**************************
*************************************************1**************************
*************************************************1**************************
*************************************************1**************************
*************************************************1**************************
*************************************************1**************************
*************************************************1**************************
*************************************************1**************************
*************************************************1**************************
*************************************************1**************************
*************************************************1**************************
*************************************************1**************************
*************************************************1**************************
*************************************************1**************************
*************************************************1**************************
*************************************************1**************************
*************************************************1**************************
*************************************************1**************************
*************************************************1**************************
*************************************************1**************************
*************************************************1**************************
*************************************************1**************************
*************************************************1**************************
*************************************************1**************************
*************************************************1**************************
*************************************************1**************************
*************************************************1**************************
*************************************************1**************************
*************************************************1**************************
*************************************************1**************************
*************************************************1**************************
*************************************************1**************************
*************************************************1**************************
*************************************************1**************************
*************************************************1**************************
*************************************************1**************************
*************************************************1**************************
*************************************************1**************************
*************************************************1**************************
*************************************************1**************************
*************************************************1**************************
*************************************************1**************************
*************************************************1**************************
*************************************************1**************************
*************************************************1**************************
*************************************************1**************************
*************************************************1**************************
*************************************************1**************************
*************************************************1**************************
*************************************************1**************************
*************************************************1**************************
*************************************************1**************************
*************************************************1**************************
*************************************************1**************************
*************************************************1**************************
*************************************************0**************************
*************************************************1**************************
*************************************************1**************************
*************************************************1**************************
*************************************************1**************************
*************************************************1**************************
*************************************************1**************************
*************************************************1**************************
*************************************************1**************************
*************************************************1**************************
*************************************************1**************************
*************************************************1**************************
*************************************************1**************************
*************************************************1**************************
*************************************************1**************************
*************************************************1**************************
*************************************************0**************************
*************************************************1**************************
*************************************************1**************************
*************************************************0**************************
*************************************************1**************************
*************************************************1**************************
*************************************************1**************************
*************************************************1**************************
*************************************************1**************************
*************************************************1**************************
*************************************************1**************************
*************************************************1**************************
*************************************************1**************************
*************************************************1**************************
*************************************************1**************************
*************************************************1**************************
*************************************************1**************************
*************************************************1**************************
*************************************************0**************************
*************************************************0**************************
*************************************************1**************************
*************************************************1**************************
*************************************************1**************************
*************************************************1**************************
*************************************************1**************************
*************************************************1**************************
*************************************************1**************************
*************************************************1**************************
*************************************************1**************************
*************************************************1**************************
*************************************************1**************************
*************************************************0**************************
*************************************************1**************************
*************************************************0**************************
*************************************************1**************************
*************************************************1**************************
*************************************************0**************************
*************************************************1**************************
*************************************************1**************************
*************************************************1**************************
*************************************************1**************************
*************************************************1**************************
*************************************************1**************************
*************************************************1**************************
*************************************************1**************************
*************************************************0**************************
*************************************************0**************************
*************************************************1**************************
*************************************************1**************************
*************************************************0**************************
*************************************************1**************************
*************************************************1**************************
*************************************************0**************************
*************************************************0**************************
*************************************************1**************************
*************************************************1**************************
*************************************************1**************************
*************************************************1**************************
*************************************************0**************************
*************************************************1**************************
*************************************************0**************************
*************************************************1**************************
*************************************************1**************************
*************************************************1**************************
*************************************************1**************************
*************************************************0**************************
*************************************************0**************************
*************************************************0**************************
*************************************************1**************************
*************************************************0**************************
*************************************************1**************************
*************************************************1**************************
*************************************************0**************************
*************************************************1**************************
*************************************************1**************************
*************************************************0**************************
*************************************************0**************************
*************************************************0**************************
*************************************************1**************************
*************************************************1**************************
*************************************************1**************************
*************************************************1**************************
*************************************************1**************************
*************************************************0**************************
*************************************************0**************************
*************************************************1**************************
*************************************************0**************************
*************************************************0**************************
*************************************************1**************************
*************************************************0**************************
*************************************************0**************************
*************************************************0**************************
*************************************************0**************************
*************************************************0**************************
*************************************************1**************************
*************************************************0**************************
*************************************************1**************************
*************************************************0**************************
*************************************************1**************************
*************************************************1**************************
*************************************************0**************************
*************************************************0**************************
*************************************************0**************************
*************************************************1**************************
*************************************************1**************************
*************************************************0**************************
*************************************************1**************************
*************************************************0**************************
*************************************************0**************************
*************************************************0**************************
*************************************************0**************************
*************************************************1**************************
*************************************************0**************************
*************************************************1**************************
*************************************************0**************************
*************************************************0**************************
*************************************************0**************************
*************************************************0**************************
*************************************************1**************************
*************************************************1**************************
*************************************************0**************************
*************************************************1**************************
*************************************************0**************************
*************************************************0**************************
*************************************************0**************************
*************************************************0**************************
*************************************************0**************************
*************************************************0**************************
*************************************************0**************************
*************************************************0**************************
*************************************************1**************************
*************************************************1**************************
*************************************************0**************************
*************************************************1**************************
*************************************************0**************************
*************************************************0**************************
*************************************************1**************************
*************************************************1**************************
*************************************************0**************************
*************************************************0**************************
*************************************************1**************************
*************************************************0**************************
*************************************************0**************************
*************************************************1**************************
*************************************************0**************************
*************************************************1**************************
*************************************************1**************************
*************************************************0**************************
*************************************************1**************************
*************************************************1**************************
*************************************************1**************************
*************************************************0**************************
*************************************************0**************************
*************************************************0**************************
*************************************************0**************************
*************************************************0**************************
*************************************************0**************************
*************************************************0**************************
*************************************************0**************************
*************************************************1**************************
*************************************************0**************************
*************************************************1**************************
*************************************************0**************************
*************************************************1**************************
*************************************************1**************************
*************************************************0**************************
*************************************************0**************************
*************************************************0**************************
*************************************************1**************************
*************************************************0**************************
*************************************************0**************************
*************************************************1**************************
*************************************************0**************************
*************************************************0**************************
*************************************************1**************************
*************************************************0**************************
*************************************************0**************************
*************************************************0**************************
*************************************************0**************************
*************************************************1**************************
*************************************************0**************************
*************************************************0**************************
*************************************************0**************************
*************************************************1**************************
*************************************************0**************************
*************************************************1**************************
*************************************************0**************************
*************************************************0**************************
*************************************************1**************************
*************************************************1**************************
*************************************************1**************************
*************************************************1**************************
*************************************************0**************************
*************************************************0**************************
*************************************************0**************************
*************************************************0**************************
*************************************************0**************************
*************************************************0**************************
*************************************************0**************************
*************************************************0**************************
*************************************************1**************************
*************************************************0**************************
*************************************************0**************************
*************************************************0**************************
*************************************************0**************************
*************************************************0**************************
*************************************************1**************************
*************************************************0**************************
*************************************************0**************************
*************************************************0**************************
*************************************************0**************************
*************************************************0**************************
*************************************************1**************************
*************************************************0**************************
*************************************************1**************************
*************************************************0**************************
*************************************************0**************************
*************************************************0**************************
*************************************************0**************************
*************************************************0**************************
*************************************************0**************************
*************************************************0**************************
*************************************************0**************************
*************************************************0**************************
*************************************************0**************************
*************************************************0**************************
*************************************************0**************************
*************************************************0**************************
*************************************************0**************************
*************************************************0**************************
*************************************************0**************************
*************************************************0**************************
*************************************************0**************************
*************************************************1**************************
*************************************************0**************************
*************************************************0**************************
*************************************************0**************************
*************************************************0**************************
*************************************************0**************************
*************************************************1**************************
*************************************************0**************************
*************************************************0**************************
*************************************************0**************************
*************************************************1**************************
*************************************************0**************************
*************************************************0**************************
*************************************************1**************************
*************************************************0**************************
*************************************************0**************************
*************************************************0**************************
*************************************************0**************************
*************************************************0**************************
*************************************************0**************************
*************************************************0**************************
*************************************************0**************************
*************************************************0**************************
*************************************************0**************************
*************************************************1**************************
*************************************************1**************************
*************************************************0**************************
*************************************************0**************************
*************************************************0**************************
*************************************************0**************************
*************************************************0**************************
*************************************************0**************************
*************************************************1**************************
*************************************************0**************************
*************************************************0**************************
*************************************************0**************************
*************************************************0**************************
*************************************************0**************************
*************************************************0**************************
*************************************************0**************************
*************************************************0**************************
*************************************************0**************************
*************************************************0**************************
*************************************************0**************************
*************************************************0**************************
*************************************************0**************************
*************************************************0**************************
*************************************************0**************************
*************************************************0**************************
*************************************************0**************************
*************************************************0**************************
*************************************************0**************************
*************************************************0**************************
*************************************************1**************************
*************************************************0**************************
*************************************************0**************************
*************************************************0**************************
*************************************************0**************************
*************************************************1**************************
*************************************************0**************************
*************************************************0**************************
*************************************************0**************************
*************************************************0**************************
*************************************************0**************************
*************************************************0**************************
*************************************************0**************************
*************************************************1**************************
*************************************************1**************************
*************************************************0**************************
*************************************************0**************************
*************************************************0**************************
*************************************************1**************************
*************************************************0**************************
*************************************************0**************************
*************************************************0**************************
*************************************************0**************************
*************************************************0**************************
*************************************************1**************************
*************************************************0**************************
*************************************************0**************************
*************************************************0**************************
*************************************************0**************************
*************************************************0**************************
*************************************************0**************************
*************************************************0**************************
*************************************************0**************************
*************************************************0**************************
*************************************************0**************************
*************************************************0**************************
*************************************************0**************************
*************************************************0**************************
*************************************************0**************************
*************************************************0**************************
*************************************************0**************************
*************************************************1**************************
*************************************************0**************************
*************************************************0**************************
*************************************************0**************************
*************************************************1**************************
*************************************************0**************************
*************************************************0**************************
*************************************************0**************************
*************************************************0**************************
*************************************************0**************************
*************************************************0**************************
*************************************************0**************************
*************************************************0**************************
*************************************************1**************************
*************************************************0**************************
*************************************************0**************************
*************************************************0**************************
*************************************************0**************************
*************************************************0**************************
*************************************************0**************************
*************************************************0**************************
*************************************************0**************************
*************************************************0**************************
*************************************************0**************************
*************************************************0**************************
*************************************************0**************************
*************************************************0**************************
*************************************************0**************************
*************************************************0**************************
*************************************************0**************************
*************************************************1**************************
*************************************************0**************************
*************************************************0**************************
*************************************************0**************************
*************************************************0**************************
*************************************************0**************************
*************************************************0**************************
*************************************************0**************************
*************************************************0**************************
*************************************************0**************************
*************************************************1**************************
*************************************************0**************************
*************************************************0**************************
*************************************************1**************************
*************************************************0**************************
*************************************************0**************************
*************************************************0**************************
*************************************************0**************************
*************************************************0**************************
*************************************************0**************************
*************************************************0**************************
*************************************************0**************************
*************************************************0**************************
*************************************************0**************************
*************************************************0**************************
*************************************************0**************************
*************************************************0**************************
*************************************************0**************************
*************************************************0**************************
*************************************************1**************************
*************************************************1**************************
*************************************************1**************************
*************************************************1**************************
*************************************************1**************************
*************************************************1**************************
*************************************************0**************************
*************************************************0**************************
*************************************************0**************************
*************************************************0**************************
*************************************************0**************************
*************************************************0**************************
*************************************************0**************************
*************************************************0**************************
*************************************************0**************************
*************************************************1**************************
*************************************************0**************************
*************************************************0**************************
*************************************************1**************************
*************************************************1**************************
*************************************************0**************************
*************************************************0**************************
*************************************************0**************************
*************************************************0**************************
*************************************************0**************************
*************************************************0**************************
*************************************************0**************************
*************************************************0**************************
*************************************************0**************************
*************************************************0**************************
*************************************************0**************************
*************************************************0**************************
*************************************************0**************************
*************************************************0**************************
*************************************************0**************************
*************************************************0**************************
*************************************************0**************************
*************************************************0**************************
*************************************************0**************************
*************************************************0**************************
*************************************************0**************************
*************************************************0**************************
*************************************************1**************************
*************************************************0**************************
*************************************************0**************************
*************************************************1**************************
*************************************************0**************************
*************************************************0**************************
*************************************************0**************************
*************************************************0**************************
*************************************************0**************************
*************************************************0**************************
*************************************************0**************************
*************************************************0**************************
*************************************************0**************************
*************************************************0**************************
*************************************************0**************************
*************************************************0**************************
*************************************************0**************************
*************************************************0**************************
*************************************************0**************************
*************************************************0**************************
*************************************************0**************************
*************************************************0**************************
*************************************************0**************************
*************************************************0**************************
*************************************************0**************************
*************************************************0**************************
*************************************************0**************************
*************************************************0**************************
*************************************************0**************************
*************************************************1**************************
*************************************************0**************************
*************************************************0**************************
*************************************************0**************************
*************************************************0**************************
*************************************************0**************************
*************************************************0**************************
*************************************************0**************************
*************************************************0**************************
*************************************************0**************************
*************************************************0**************************
*************************************************0**************************
*************************************************1**************************
*************************************************0**************************
*************************************************0**************************
*************************************************0**************************
*************************************************0**************************
*************************************************0**************************
*************************************************0**************************
*************************************************0**************************
*************************************************0**************************
*************************************************0**************************
*************************************************0**************************
*************************************************0**************************
*************************************************0**************************
*************************************************0**************************
*************************************************0**************************
*************************************************0**************************
*************************************************0**************************
*************************************************0**************************
*************************************************0**************************
*************************************************1**************************
*************************************************0**************************
*************************************************0**************************
*************************************************0**************************
*************************************************0**************************
*************************************************0**************************
*************************************************1**************************
*************************************************0**************************
*************************************************0**************************
*************************************************0**************************
*************************************************0**************************
*************************************************0**************************
*************************************************0**************************
*************************************************0**************************
*************************************************0**************************
*************************************************0**************************
*************************************************0**************************
*************************************************0**************************
*************************************************0**************************
*************************************************0**************************
*************************************************0**************************
*************************************************0**************************
*************************************************0**************************
*************************************************0**************************
*************************************************0**************************
*************************************************0**************************
*************************************************0**************************
*************************************************0**************************
*************************************************0**************************
*************************************************0**************************
*************************************************0**************************
*************************************************0**************************
*************************************************0**************************
*************************************************0**************************
*************************************************0**************************
*************************************************0**************************
*************************************************0**************************
*************************************************1**************************
*************************************************0**************************
*************************************************0**************************
*************************************************0**************************
*************************************************0**************************
*************************************************0**************************
*************************************************0**************************
*************************************************0**************************
*************************************************0**************************
*************************************************0**************************
*************************************************0**************************
*************************************************0**************************
*************************************************0**************************
*************************************************0**************************
*************************************************0**************************
*************************************************0**************************
*************************************************0**************************
*************************************************0**************************
*************************************************0**************************
*************************************************0**************************
*************************************************0**************************
*************************************************0**************************
*************************************************0**************************
*************************************************0**************************
*************************************************0**************************
*************************************************0**************************
*************************************************0**************************
*************************************************0**************************
*************************************************0**************************
*************************************************0**************************
*************************************************0**************************
*************************************************0**************************
*************************************************1**************************
*************************************************1**************************
*************************************************1**************************
*************************************************1**************************
*************************************************1**************************
*************************************************1**************************
*************************************************1**************************
*************************************************1**************************
*************************************************1**************************
Heartbeat CPU 0 instructions: 10000001 cycles: 3446733 heartbeat IPC: 2.9013 cumulative IPC: 2.9013 (Simulation time: 0 hr 0 min 16 sec) 

Warmup complete CPU 0 instructions: 10000001 cycles: 3446733 (Simulation time: 0 hr 0 min 16 sec) 

*************************************************1**************************
*************************************************1**************************
*************************************************1**************************
*************************************************0**************************
*************************************************0**************************
*************************************************0**************************
*************************************************0**************************
*************************************************0**************************
*************************************************0**************************
*************************************************0**************************
*************************************************0**************************
*************************************************0**************************
*************************************************1**************************
*************************************************0**************************
*************************************************0**************************
*************************************************0**************************
*************************************************0**************************
*************************************************0**************************
*************************************************0**************************
*************************************************0**************************
*************************************************0**************************
*************************************************0**************************
*************************************************0**************************
*************************************************0**************************
*************************************************0**************************
*************************************************0**************************
*************************************************0**************************
*************************************************0**************************
*************************************************0**************************
*************************************************0**************************
*************************************************0**************************
*************************************************0**************************
*************************************************0**************************
*************************************************0**************************
*************************************************0**************************
*************************************************0**************************
*************************************************0**************************
*************************************************0**************************
*************************************************0**************************
*************************************************0**************************
*************************************************0**************************
*************************************************0**************************
*************************************************0**************************
*************************************************0**************************
*************************************************0**************************
*************************************************0**************************
*************************************************0**************************
*************************************************0**************************
*************************************************0**************************
*************************************************0**************************
*************************************************0**************************
*************************************************0**************************
*************************************************0**************************
*************************************************0**************************
*************************************************0**************************
*************************************************0**************************
*************************************************0**************************
*************************************************0**************************
*************************************************0**************************
*************************************************0**************************
*************************************************0**************************
*************************************************0**************************
*************************************************0**************************
*************************************************0**************************
*************************************************0**************************
*************************************************1**************************
*************************************************0**************************
[...]
*************************************************0**************************
*************************************************0**************************
*************************************************0**************************
*************************************************0**************************
*************************************************0**************************
*************************************************0**************************
*************************************************0**************************
*************************************************1**************************
*************************************************0**************************
*************************************************1**************************
*************************************************0**************************
*************************************************0**************************
*************************************************1**************************
*************************************************1**************************
*************************************************0**************************
*************************************************0**************************
*************************************************0**************************
*************************************************0**************************
*************************************************0**************************
*************************************************0**************************
*************************************************0**************************
*************************************************0**************************
*************************************************0**************************
*************************************************1**************************
*************************************************0**************************
*************************************************0**************************
*************************************************0**************************
*************************************************0**************************
*************************************************0**************************
*************************************************1**************************
*************************************************0**************************
*************************************************0**************************
*************************************************0**************************
*************************************************0**************************
*************************************************0**************************
*************************************************0**************************
*************************************************0**************************
*************************************************1**************************
*************************************************0**************************
*************************************************1**************************
*************************************************0**************************
*************************************************1**************************
*************************************************0**************************
*************************************************0**************************
*************************************************0**************************
*************************************************0**************************
*************************************************0**************************
*************************************************0**************************
*************************************************0**************************
*************************************************0**************************
*************************************************0**************************
*************************************************0**************************
*************************************************0**************************
*************************************************0**************************
*************************************************0**************************
*************************************************0**************************
*************************************************0**************************
*************************************************1**************************
*************************************************0**************************
*************************************************0**************************
*************************************************0**************************
*************************************************0**************************
*************************************************0**************************
*************************************************1**************************
*************************************************0**************************
*************************************************0**************************
*************************************************0**************************
*************************************************1**************************
*************************************************0**************************
*************************************************1**************************
*************************************************1**************************
*************************************************0**************************
*************************************************0**************************
*************************************************0**************************
*************************************************0**************************
*************************************************0**************************
*************************************************0**************************
*************************************************0**************************
*************************************************0**************************
*************************************************0**************************
*************************************************0**************************
*************************************************0**************************
*************************************************1**************************
*************************************************1**************************
*************************************************0**************************
*************************************************0**************************
*************************************************0**************************
*************************************************0**************************
*************************************************0**************************
*************************************************0**************************
*************************************************0**************************
*************************************************0**************************
*************************************************0**************************
*************************************************0**************************
*************************************************0**************************
*************************************************1**************************
*************************************************0**************************
*************************************************1**************************
*************************************************0**************************
*************************************************0**************************
*************************************************1**************************
*************************************************0**************************
*************************************************0**************************
*************************************************0**************************
*************************************************0**************************
*************************************************0**************************
*************************************************0**************************
*************************************************0**************************
*************************************************0**************************
*************************************************0**************************
*************************************************0**************************
*************************************************0**************************
*************************************************1**************************
*************************************************0**************************
*************************************************0**************************
*************************************************0**************************
*************************************************0**************************
*************************************************1**************************
*************************************************0**************************
*************************************************0**************************
*************************************************0**************************
*************************************************0**************************
*************************************************0**************************
*************************************************0**************************
*************************************************0**************************
*************************************************1**************************
*************************************************1**************************
*************************************************0**************************
*************************************************0**************************
*************************************************0**************************
*************************************************0**************************
*************************************************0**************************
*************************************************0**************************
*************************************************0**************************
*************************************************0**************************
*************************************************1**************************
*************************************************0**************************
*************************************************0**************************
*************************************************0**************************
*************************************************0**************************
*************************************************0**************************
*************************************************0**************************
*************************************************0**************************
*************************************************0**************************
*************************************************0**************************
*************************************************0**************************
*************************************************0**************************
*************************************************0**************************
*************************************************0**************************
*************************************************0**************************
*************************************************0**************************
*************************************************0**************************
*************************************************0**************************
*************************************************0**************************
*************************************************0**************************
*************************************************1**************************
*************************************************0**************************
*************************************************0**************************
*************************************************0**************************
*************************************************1**************************
*************************************************0**************************
*************************************************0**************************
*************************************************0**************************
*************************************************0**************************
*************************************************0**************************
*************************************************1**************************
*************************************************0**************************
*************************************************0**************************
*************************************************0**************************
*************************************************0**************************
*************************************************0**************************
*************************************************0**************************
*************************************************0**************************
*************************************************0**************************
*************************************************1**************************
*************************************************0**************************
*************************************************0**************************
*************************************************0**************************
*************************************************0**************************
*************************************************0**************************
*************************************************0**************************
*************************************************0**************************
*************************************************0**************************
*************************************************0**************************
*************************************************0**************************
*************************************************0**************************
*************************************************0**************************
*************************************************0**************************
*************************************************0**************************
*************************************************0**************************
*************************************************1**************************
*************************************************0**************************
*************************************************0**************************
*************************************************1**************************
*************************************************0**************************
*************************************************0**************************
*************************************************1**************************
*************************************************0**************************
*************************************************0**************************
*************************************************0**************************
*************************************************0**************************
*************************************************0**************************
*************************************************0**************************
*************************************************0**************************
*************************************************0**************************
*************************************************0**************************
*************************************************0**************************
*************************************************0**************************
*************************************************0**************************
*************************************************0**************************
*************************************************0**************************
*************************************************0**************************
*************************************************0**************************
*************************************************1**************************
*************************************************1**************************
*************************************************1**************************
*************************************************1**************************
*************************************************1**************************
*************************************************1**************************
*************************************************0**************************
*************************************************0**************************
Heartbeat CPU 0 instructions: 20000003 cycles: 15814665 heartbeat IPC: 0.808543 cumulative IPC: 0.808543 (Simulation time: 0 hr 0 min 35 sec) 
Finished CPU 0 instructions: 10000002 cycles: 12367932 cumulative IPC: 0.808543 (Simulation time: 0 hr 0 min 35 sec) 

ChampSim completed all CPUs

Region of Interest Statistics

CPU 0 cumulative IPC: 0.808543 instructions: 10000002 cycles: 12367932
L1D TOTAL     ACCESS:    1472024  HIT:    1329705  MISS:     142319
L1D LOAD      ACCESS:    1342788  HIT:    1206211  MISS:     136577
L1D RFO       ACCESS:     129236  HIT:     123494  MISS:       5742
L1D PREFETCH  ACCESS:          0  HIT:          0  MISS:          0
L1D WRITEBACK ACCESS:          0  HIT:          0  MISS:          0
L1D PREFETCH  REQUESTED:          0  ISSUED:          0  USEFUL:          0  USELESS:          0
L1D AVERAGE MISS LATENCY: 101.383 cycles
L1I TOTAL     ACCESS:    1961796  HIT:    1961796  MISS:          0
L1I LOAD      ACCESS:    1961796  HIT:    1961796  MISS:          0
L1I RFO       ACCESS:          0  HIT:          0  MISS:          0
L1I PREFETCH  ACCESS:          0  HIT:          0  MISS:          0
L1I WRITEBACK ACCESS:          0  HIT:          0  MISS:          0
L1I PREFETCH  REQUESTED:          0  ISSUED:          0  USEFUL:          0  USELESS:          0
L1I AVERAGE MISS LATENCY: -nan cycles
L2C TOTAL     ACCESS:     150451  HIT:      28105  MISS:     122346
L2C LOAD      ACCESS:     136577  HIT:      19526  MISS:     117051
L2C RFO       ACCESS:       5742  HIT:        464  MISS:       5278
L2C PREFETCH  ACCESS:          0  HIT:          0  MISS:          0
L2C WRITEBACK ACCESS:       8132  HIT:       8115  MISS:         17
L2C PREFETCH  REQUESTED:          0  ISSUED:          0  USEFUL:          0  USELESS:          0
L2C AVERAGE MISS LATENCY: 99.5416 cycles
LLC TOTAL     ACCESS:     131967  HIT:      60326  MISS:      71641
LLC LOAD      ACCESS:     117051  HIT:      51652  MISS:      65399
LLC RFO       ACCESS:       5278  HIT:       3145  MISS:       2133
LLC PREFETCH  ACCESS:          0  HIT:          0  MISS:          0
LLC WRITEBACK ACCESS:       9638  HIT:       5529  MISS:       4109
LLC PREFETCH  REQUESTED:          0  ISSUED:          0  USEFUL:          0  USELESS:          0
LLC AVERAGE MISS LATENCY: 117.81 cycles
Major fault: 0 Minor fault: 2222
OPTgen accesses: 3849
OPTgen hits: 1520
OPTgen hit rate: 39.4908



DRAM Statistics
 CHANNEL 0
 RQ ROW_BUFFER_HIT:      44873  ROW_BUFFER_MISS:      22657
 DBUS_CONGESTED:       5050
 WQ ROW_BUFFER_HIT:       4235  ROW_BUFFER_MISS:       2173  FULL:          0

 AVG_CONGESTED_CYCLE: 6

CPU 0 Branch Prediction Accuracy: 95.9549% MPKI: 3.6788 Average ROB Occupancy at Mispredict: 151.483

Branch types
NOT_BRANCH: 9090669 90.9067%
BRANCH_DIRECT_JUMP: 18299 0.18299%
BRANCH_INDIRECT: 0 0%
BRANCH_CONDITIONAL: 861858 8.61858%
BRANCH_DIRECT_CALL: 14647 0.14647%
BRANCH_INDIRECT_CALL: 0 0%
BRANCH_RETURN: 14647 0.14647%
BRANCH_OTHER: 0 0%

